version 2
run IPv4SlowMobility-0-20141008-16:13:09-89040
attr configname IPv4SlowMobility
attr datetime 20141008-16:13:09
attr experiment IPv4SlowMobility
attr inifile omnetpp.ini
attr iterationvars ""
attr iterationvars2 $repetition=0
attr measurement ""
attr network OrionNetwork
attr processid 89040
attr repetition 0
attr replication #0
attr resultdir results
attr runnumber 0
attr seedset 0

scalar OrionNetwork 	hackForCreateResultsFolder 	0
scalar OrionNetwork.host[0].networkLayer.arp 	initiatedARPResolution:count 	0
attr title  "ARP initiated resolutions, count"
scalar OrionNetwork.host[0].networkLayer.arp 	sentReply:count 	3
attr title  "ARP replies sent, count"
scalar OrionNetwork.host[0].networkLayer.arp 	sentReq:count 	0
attr title  "ARP request sent, count"
scalar OrionNetwork.host[0].networkLayer.arp 	failedARPResolution:count 	0
attr title  "ARP failed resolutions, count"
scalar OrionNetwork.host[0].networkLayer.arp 	completedARPResolution:count 	3
attr title  "ARP completed resolutions, count"
scalar OrionNetwork.host[0].lo0.lo 	rcvdPkFromHL:count 	0
attr interpolationmode  none
attr source  packetReceivedFromUpper
attr title  "packets received from higher layer, count"
scalar OrionNetwork.host[0].lo0.lo 	rcvdPkFromHL:sum(packetBytes) 	0
attr interpolationmode  none
attr source  packetReceivedFromUpper
attr title  "packets received from higher layer, sum(packetBytes)"
scalar OrionNetwork.host[0].lo0.lo 	passedUpPk:count 	0
attr interpolationmode  none
attr source  packetSentToUpper
attr title  "packets passed to higher layer, count"
scalar OrionNetwork.host[0].lo0.lo 	passedUpPk:sum(packetBytes) 	0
attr interpolationmode  none
attr source  packetSentToUpper
attr title  "packets passed to higher layer, sum(packetBytes)"
scalar OrionNetwork.host[0].lo0.lo 	droppedPkBitError:count 	0
attr interpolationmode  none
attr source  dropPkBitError
attr title  "packets dropped/bit error, count"
scalar OrionNetwork.host[0].lo0.lo 	droppedPkBitError:sum(packetBytes) 	0
attr interpolationmode  none
attr source  dropPkBitError
attr title  "packets dropped/bit error, sum(packetBytes)"
statistic OrionNetwork.host[0].wlan[0].queue 	queueingTime:histogram
field count 53
field mean 0
field stddev 0
field sum 0
field sqrsum 0
field min 0
field max 0
attr interpolationmode  none
attr title  "queueing time, histogram"
bin	-INF	0
bin	-0.5	0
bin	-0.46666666666667	0
bin	-0.43333333333333	0
bin	-0.4	0
bin	-0.36666666666667	0
bin	-0.33333333333333	0
bin	-0.3	0
bin	-0.26666666666667	0
bin	-0.23333333333333	0
bin	-0.2	0
bin	-0.16666666666667	0
bin	-0.13333333333333	0
bin	-0.1	0
bin	-0.066666666666667	0
bin	-0.033333333333333	0
bin	-6.9388939039072e-018	53
bin	0.033333333333333	0
bin	0.066666666666667	0
bin	0.1	0
bin	0.13333333333333	0
bin	0.16666666666667	0
bin	0.2	0
bin	0.23333333333333	0
bin	0.26666666666667	0
bin	0.3	0
bin	0.33333333333333	0
bin	0.36666666666667	0
bin	0.4	0
bin	0.43333333333333	0
bin	0.46666666666667	0
bin	0.5	0
scalar OrionNetwork.host[0].wlan[0].queue 	dropPk:count 	0
attr interpolationmode  none
attr source  dropPkByQueue
attr title  "dropped packets, count"
scalar OrionNetwork.host[0].wlan[0].queue 	dropPk:sum(packetBytes) 	0
attr interpolationmode  none
attr source  dropPkByQueue
attr title  "dropped packets, sum(packetBytes)"
scalar OrionNetwork.host[0].wlan[0].queue 	queueLength:max 	0
attr interpolationmode  sample-hold
attr title  "queue length, max"
scalar OrionNetwork.host[0].wlan[0].queue 	queueLength:timeavg 	0
attr interpolationmode  sample-hold
attr title  "queue length, timeavg"
scalar OrionNetwork.host[0].wlan[0].queue 	rcvdPk:count 	53
attr interpolationmode  none
attr title  "received packets, count"
scalar OrionNetwork.host[0].wlan[0].queue 	rcvdPk:sum(packetBytes) 	2492
attr interpolationmode  none
attr title  "received packets, sum(packetBytes)"
scalar OrionNetwork.host[0].wlan[0].mac 	droppedPkNotForUs:count 	39
attr interpolationmode  none
attr source  dropPkNotForUs
attr title  "packets dropped/not for us, count"
scalar OrionNetwork.host[0].wlan[0].mac 	droppedPkNotForUs:sum(packetBytes) 	2182
attr interpolationmode  none
attr source  dropPkNotForUs
attr title  "packets dropped/not for us, sum(packetBytes)"
scalar OrionNetwork.host[0].wlan[0].mac 	rcvdPkFromHL:count 	53
attr interpolationmode  none
attr source  packetReceivedFromUpper
attr title  "packets received from higher layer, count"
scalar OrionNetwork.host[0].wlan[0].mac 	rcvdPkFromHL:sum(packetBytes) 	2492
attr interpolationmode  none
attr source  packetReceivedFromUpper
attr title  "packets received from higher layer, sum(packetBytes)"
scalar OrionNetwork.host[0].wlan[0].mac 	passedUpPk:count 	155
attr interpolationmode  none
attr source  packetSentToUpper
attr title  "packets passed to higher layer, count"
scalar OrionNetwork.host[0].wlan[0].mac 	passedUpPk:sum(packetBytes) 	48320
attr interpolationmode  none
attr source  packetSentToUpper
attr title  "packets passed to higher layer, sum(packetBytes)"
scalar OrionNetwork.host[0].wlan[0].mac 	rcvdPkFromLL:count 	194
attr interpolationmode  none
attr source  packetReceivedFromLower
attr title  "packets received from lower layer, count"
scalar OrionNetwork.host[0].wlan[0].mac 	rcvdPkFromLL:sum(packetBytes) 	52052
attr interpolationmode  none
attr source  packetReceivedFromLower
attr title  "packets received from lower layer, sum(packetBytes)"
scalar OrionNetwork.host[0].wlan[0].mac 	sentDownPk:count 	53
attr interpolationmode  none
attr source  packetSentToLower
attr title  "packets sent to lower layer, count"
scalar OrionNetwork.host[0].wlan[0].mac 	sentDownPk:sum(packetBytes) 	3022
attr interpolationmode  none
attr source  packetSentToLower
attr title  "packets sent to lower layer, sum(packetBytes)"
scalar OrionNetwork.host[0].udpApp[0] 	"packets sent" 	49
scalar OrionNetwork.host[0].udpApp[0] 	"packets received" 	144
scalar OrionNetwork.host[0].udpApp[0] 	sentPk:count 	49
attr interpolationmode  none
attr source  sentPk
attr title  "packets sent, count"
scalar OrionNetwork.host[0].udpApp[0] 	sentPk:sum(packetBytes) 	980
attr interpolationmode  none
attr source  sentPk
attr title  "packets sent, sum(packetBytes)"
scalar OrionNetwork.host[0].udpApp[0] 	rcvdPk:count 	144
attr interpolationmode  none
attr source  rcvdPk
attr title  "packets received, count"
scalar OrionNetwork.host[0].udpApp[0] 	rcvdPk:sum(packetBytes) 	43840
attr interpolationmode  none
attr source  rcvdPk
attr title  "packets received, sum(packetBytes)"
statistic OrionNetwork.host[0].udpApp[0] 	rcvdPkLifetime:stats
field count 144
field mean 0.0055940253031806
field stddev 0.0086335828612286
field sum 0.805539643658
field sqrsum 0.015165250831441
field min 0.000232049364
field max 0.030412545547
attr interpolationmode  none
attr source  messageAge(rcvdPk)
attr title  "received packet lifetime, stats"
attr unit  s
scalar OrionNetwork.host[0].udp 	droppedPkBadChecksum:count 	0
attr interpolationmode  none
attr title  "packets dropped (checksum error), count"
scalar OrionNetwork.host[0].udp 	droppedPkWrongPort:count 	8
attr interpolationmode  none
attr title  "packets dropped (wrong port), count"
scalar OrionNetwork.host[0].udp 	passedUpPk:count 	144
attr interpolationmode  none
attr title  "packets passed up, count"
scalar OrionNetwork.host[0].udp 	sentPk:count 	49
attr interpolationmode  none
attr source  sentPk
attr title  "packets sent, count"
scalar OrionNetwork.host[0].udp 	sentPk:sum(packetBytes) 	1372
attr interpolationmode  none
attr source  sentPk
attr title  "packets sent, sum(packetBytes)"
scalar OrionNetwork.host[0].udp 	rcvdPk:count 	152
attr interpolationmode  none
attr source  rcvdPk
attr title  "packets received, count"
scalar OrionNetwork.host[0].udp 	rcvdPk:sum(packetBytes) 	45196
attr interpolationmode  none
attr source  rcvdPk
attr title  "packets received, sum(packetBytes)"
scalar OrionNetwork.host[1].networkLayer.arp 	initiatedARPResolution:count 	1
attr title  "ARP initiated resolutions, count"
scalar OrionNetwork.host[1].networkLayer.arp 	sentReply:count 	0
attr title  "ARP replies sent, count"
scalar OrionNetwork.host[1].networkLayer.arp 	sentReq:count 	1
attr title  "ARP request sent, count"
scalar OrionNetwork.host[1].networkLayer.arp 	failedARPResolution:count 	0
attr title  "ARP failed resolutions, count"
scalar OrionNetwork.host[1].networkLayer.arp 	completedARPResolution:count 	1
attr title  "ARP completed resolutions, count"
scalar OrionNetwork.host[1].lo0.lo 	rcvdPkFromHL:count 	0
attr interpolationmode  none
attr source  packetReceivedFromUpper
attr title  "packets received from higher layer, count"
scalar OrionNetwork.host[1].lo0.lo 	rcvdPkFromHL:sum(packetBytes) 	0
attr interpolationmode  none
attr source  packetReceivedFromUpper
attr title  "packets received from higher layer, sum(packetBytes)"
scalar OrionNetwork.host[1].lo0.lo 	passedUpPk:count 	0
attr interpolationmode  none
attr source  packetSentToUpper
attr title  "packets passed to higher layer, count"
scalar OrionNetwork.host[1].lo0.lo 	passedUpPk:sum(packetBytes) 	0
attr interpolationmode  none
attr source  packetSentToUpper
attr title  "packets passed to higher layer, sum(packetBytes)"
scalar OrionNetwork.host[1].lo0.lo 	droppedPkBitError:count 	0
attr interpolationmode  none
attr source  dropPkBitError
attr title  "packets dropped/bit error, count"
scalar OrionNetwork.host[1].lo0.lo 	droppedPkBitError:sum(packetBytes) 	0
attr interpolationmode  none
attr source  dropPkBitError
attr title  "packets dropped/bit error, sum(packetBytes)"
statistic OrionNetwork.host[1].wlan[0].queue 	queueingTime:histogram
field count 21
field mean 0.0035471216638095
field stddev 0.0052655638376421
field sum 0.07448955494
field sqrsum 0.00081874676462089
field min 0
field max 0.014851510988
attr interpolationmode  none
attr title  "queueing time, histogram"
bin	-INF	0
bin	-0.007425755494	0
bin	-0.0064356547614667	0
bin	-0.0054455540289333	0
bin	-0.0044554532964	0
bin	-0.0034653525638667	0
bin	-0.0024752518313333	0
bin	-0.0014851510988	0
bin	-0.00049505036626667	13
bin	0.00049505036626667	0
bin	0.0014851510988	0
bin	0.0024752518313333	0
bin	0.0034653525638667	2
bin	0.0044554532964	0
bin	0.0054455540289333	0
bin	0.0064356547614667	1
bin	0.007425755494	1
bin	0.0084158562265333	0
bin	0.0094059569590667	0
bin	0.0103960576916	2
bin	0.011386158424133	0
bin	0.012376259156667	0
bin	0.0133663598892	0
bin	0.014356460621733	2
bin	0.015346561354267	0
bin	0.0163366620868	0
bin	0.017326762819333	0
bin	0.018316863551867	0
bin	0.0193069642844	0
bin	0.020297065016933	0
bin	0.021287165749467	0
bin	0.022277266482	0
scalar OrionNetwork.host[1].wlan[0].queue 	dropPk:count 	0
attr interpolationmode  none
attr source  dropPkByQueue
attr title  "dropped packets, count"
scalar OrionNetwork.host[1].wlan[0].queue 	dropPk:sum(packetBytes) 	0
attr interpolationmode  none
attr source  dropPkByQueue
attr title  "dropped packets, sum(packetBytes)"
scalar OrionNetwork.host[1].wlan[0].queue 	queueLength:max 	8
attr interpolationmode  sample-hold
attr title  "queue length, max"
scalar OrionNetwork.host[1].wlan[0].queue 	queueLength:timeavg 	0.0014897910988
attr interpolationmode  sample-hold
attr title  "queue length, timeavg"
scalar OrionNetwork.host[1].wlan[0].queue 	rcvdPk:count 	21
attr interpolationmode  none
attr title  "received packets, count"
scalar OrionNetwork.host[1].wlan[0].queue 	rcvdPk:sum(packetBytes) 	6108
attr interpolationmode  none
attr title  "received packets, sum(packetBytes)"
scalar OrionNetwork.host[1].wlan[0].mac 	droppedPkNotForUs:count 	122
attr interpolationmode  none
attr source  dropPkNotForUs
attr title  "packets dropped/not for us, count"
scalar OrionNetwork.host[1].wlan[0].mac 	droppedPkNotForUs:sum(packetBytes) 	32564
attr interpolationmode  none
attr source  dropPkNotForUs
attr title  "packets dropped/not for us, sum(packetBytes)"
scalar OrionNetwork.host[1].wlan[0].mac 	rcvdPkFromHL:count 	21
attr interpolationmode  none
attr source  packetReceivedFromUpper
attr title  "packets received from higher layer, count"
scalar OrionNetwork.host[1].wlan[0].mac 	rcvdPkFromHL:sum(packetBytes) 	6108
attr interpolationmode  none
attr source  packetReceivedFromUpper
attr title  "packets received from higher layer, sum(packetBytes)"
scalar OrionNetwork.host[1].wlan[0].mac 	passedUpPk:count 	93
attr interpolationmode  none
attr source  packetSentToUpper
attr title  "packets passed to higher layer, count"
scalar OrionNetwork.host[1].wlan[0].mac 	passedUpPk:sum(packetBytes) 	4424
attr interpolationmode  none
attr source  packetSentToUpper
attr title  "packets passed to higher layer, sum(packetBytes)"
scalar OrionNetwork.host[1].wlan[0].mac 	rcvdPkFromLL:count 	215
attr interpolationmode  none
attr source  packetReceivedFromLower
attr title  "packets received from lower layer, count"
scalar OrionNetwork.host[1].wlan[0].mac 	rcvdPkFromLL:sum(packetBytes) 	37918
attr interpolationmode  none
attr source  packetReceivedFromLower
attr title  "packets received from lower layer, sum(packetBytes)"
scalar OrionNetwork.host[1].wlan[0].mac 	sentDownPk:count 	21
attr interpolationmode  none
attr source  packetSentToLower
attr title  "packets sent to lower layer, count"
scalar OrionNetwork.host[1].wlan[0].mac 	sentDownPk:sum(packetBytes) 	6318
attr interpolationmode  none
attr source  packetSentToLower
attr title  "packets sent to lower layer, sum(packetBytes)"
scalar OrionNetwork.host[1].udpApp[0] 	"packets sent" 	9
scalar OrionNetwork.host[1].udpApp[0] 	"packets received" 	91
scalar OrionNetwork.host[1].udpApp[0] 	sentPk:count 	15
attr interpolationmode  none
attr source  sentPk
attr title  "packets sent, count"
scalar OrionNetwork.host[1].udpApp[0] 	sentPk:sum(packetBytes) 	280
attr interpolationmode  none
attr source  sentPk
attr title  "packets sent, sum(packetBytes)"
scalar OrionNetwork.host[1].udpApp[0] 	rcvdPk:count 	91
attr interpolationmode  none
attr source  rcvdPk
attr title  "packets received, count"
scalar OrionNetwork.host[1].udpApp[0] 	rcvdPk:sum(packetBytes) 	1820
attr interpolationmode  none
attr source  rcvdPk
attr title  "packets received, sum(packetBytes)"
statistic OrionNetwork.host[1].udpApp[0] 	rcvdPkLifetime:stats
field count 91
field mean 0.00023255013796703
field stddev 2.2333311607595e-007
field sum 0.021162062555
field sqrsum 4.9212450558235e-006
field min 0.00023206625
field max 0.000232828672
attr interpolationmode  none
attr source  messageAge(rcvdPk)
attr title  "received packet lifetime, stats"
attr unit  s
scalar OrionNetwork.host[1].udp 	droppedPkBadChecksum:count 	0
attr interpolationmode  none
attr title  "packets dropped (checksum error), count"
scalar OrionNetwork.host[1].udp 	droppedPkWrongPort:count 	0
attr interpolationmode  none
attr title  "packets dropped (wrong port), count"
scalar OrionNetwork.host[1].udp 	passedUpPk:count 	91
attr interpolationmode  none
attr title  "packets passed up, count"
scalar OrionNetwork.host[1].udp 	sentPk:count 	20
attr interpolationmode  none
attr source  sentPk
attr title  "packets sent, count"
scalar OrionNetwork.host[1].udp 	sentPk:sum(packetBytes) 	5680
attr interpolationmode  none
attr source  sentPk
attr title  "packets sent, sum(packetBytes)"
scalar OrionNetwork.host[1].udp 	rcvdPk:count 	91
attr interpolationmode  none
attr source  rcvdPk
attr title  "packets received, count"
scalar OrionNetwork.host[1].udp 	rcvdPk:sum(packetBytes) 	2548
attr interpolationmode  none
attr source  rcvdPk
attr title  "packets received, sum(packetBytes)"
scalar OrionNetwork.host[2].networkLayer.arp 	initiatedARPResolution:count 	0
attr title  "ARP initiated resolutions, count"
scalar OrionNetwork.host[2].networkLayer.arp 	sentReply:count 	0
attr title  "ARP replies sent, count"
scalar OrionNetwork.host[2].networkLayer.arp 	sentReq:count 	0
attr title  "ARP request sent, count"
scalar OrionNetwork.host[2].networkLayer.arp 	failedARPResolution:count 	0
attr title  "ARP failed resolutions, count"
scalar OrionNetwork.host[2].networkLayer.arp 	completedARPResolution:count 	0
attr title  "ARP completed resolutions, count"
scalar OrionNetwork.host[2].lo0.lo 	rcvdPkFromHL:count 	0
attr interpolationmode  none
attr source  packetReceivedFromUpper
attr title  "packets received from higher layer, count"
scalar OrionNetwork.host[2].lo0.lo 	rcvdPkFromHL:sum(packetBytes) 	0
attr interpolationmode  none
attr source  packetReceivedFromUpper
attr title  "packets received from higher layer, sum(packetBytes)"
scalar OrionNetwork.host[2].lo0.lo 	passedUpPk:count 	0
attr interpolationmode  none
attr source  packetSentToUpper
attr title  "packets passed to higher layer, count"
scalar OrionNetwork.host[2].lo0.lo 	passedUpPk:sum(packetBytes) 	0
attr interpolationmode  none
attr source  packetSentToUpper
attr title  "packets passed to higher layer, sum(packetBytes)"
scalar OrionNetwork.host[2].lo0.lo 	droppedPkBitError:count 	0
attr interpolationmode  none
attr source  dropPkBitError
attr title  "packets dropped/bit error, count"
scalar OrionNetwork.host[2].lo0.lo 	droppedPkBitError:sum(packetBytes) 	0
attr interpolationmode  none
attr source  dropPkBitError
attr title  "packets dropped/bit error, sum(packetBytes)"
statistic OrionNetwork.host[2].wlan[0].queue 	queueingTime:histogram
field count 3
field mean 0
field stddev 0
field sum 0
field sqrsum 0
field min 0
field max 0
attr interpolationmode  none
attr title  "queueing time, histogram"
bin	-INF	0
bin	-0.5	0
bin	-0.46666666666667	0
bin	-0.43333333333333	0
bin	-0.4	0
bin	-0.36666666666667	0
bin	-0.33333333333333	0
bin	-0.3	0
bin	-0.26666666666667	0
bin	-0.23333333333333	0
bin	-0.2	0
bin	-0.16666666666667	0
bin	-0.13333333333333	0
bin	-0.1	0
bin	-0.066666666666667	0
bin	-0.033333333333333	0
bin	-6.9388939039072e-018	3
bin	0.033333333333333	0
bin	0.066666666666667	0
bin	0.1	0
bin	0.13333333333333	0
bin	0.16666666666667	0
bin	0.2	0
bin	0.23333333333333	0
bin	0.26666666666667	0
bin	0.3	0
bin	0.33333333333333	0
bin	0.36666666666667	0
bin	0.4	0
bin	0.43333333333333	0
bin	0.46666666666667	0
bin	0.5	0
scalar OrionNetwork.host[2].wlan[0].queue 	dropPk:count 	0
attr interpolationmode  none
attr source  dropPkByQueue
attr title  "dropped packets, count"
scalar OrionNetwork.host[2].wlan[0].queue 	dropPk:sum(packetBytes) 	0
attr interpolationmode  none
attr source  dropPkByQueue
attr title  "dropped packets, sum(packetBytes)"
scalar OrionNetwork.host[2].wlan[0].queue 	queueLength:max 	0
attr interpolationmode  sample-hold
attr title  "queue length, max"
scalar OrionNetwork.host[2].wlan[0].queue 	queueLength:timeavg 	0
attr interpolationmode  sample-hold
attr title  "queue length, timeavg"
scalar OrionNetwork.host[2].wlan[0].queue 	rcvdPk:count 	3
attr interpolationmode  none
attr title  "received packets, count"
scalar OrionNetwork.host[2].wlan[0].queue 	rcvdPk:sum(packetBytes) 	144
attr interpolationmode  none
attr title  "received packets, sum(packetBytes)"
scalar OrionNetwork.host[2].wlan[0].mac 	droppedPkNotForUs:count 	0
attr interpolationmode  none
attr source  dropPkNotForUs
attr title  "packets dropped/not for us, count"
scalar OrionNetwork.host[2].wlan[0].mac 	droppedPkNotForUs:sum(packetBytes) 	0
attr interpolationmode  none
attr source  dropPkNotForUs
attr title  "packets dropped/not for us, sum(packetBytes)"
scalar OrionNetwork.host[2].wlan[0].mac 	rcvdPkFromHL:count 	3
attr interpolationmode  none
attr source  packetReceivedFromUpper
attr title  "packets received from higher layer, count"
scalar OrionNetwork.host[2].wlan[0].mac 	rcvdPkFromHL:sum(packetBytes) 	144
attr interpolationmode  none
attr source  packetReceivedFromUpper
attr title  "packets received from higher layer, sum(packetBytes)"
scalar OrionNetwork.host[2].wlan[0].mac 	passedUpPk:count 	3
attr interpolationmode  none
attr source  packetSentToUpper
attr title  "packets passed to higher layer, count"
scalar OrionNetwork.host[2].wlan[0].mac 	passedUpPk:sum(packetBytes) 	144
attr interpolationmode  none
attr source  packetSentToUpper
attr title  "packets passed to higher layer, sum(packetBytes)"
scalar OrionNetwork.host[2].wlan[0].mac 	rcvdPkFromLL:count 	3
attr interpolationmode  none
attr source  packetReceivedFromLower
attr title  "packets received from lower layer, count"
scalar OrionNetwork.host[2].wlan[0].mac 	rcvdPkFromLL:sum(packetBytes) 	174
attr interpolationmode  none
attr source  packetReceivedFromLower
attr title  "packets received from lower layer, sum(packetBytes)"
scalar OrionNetwork.host[2].wlan[0].mac 	sentDownPk:count 	3
attr interpolationmode  none
attr source  packetSentToLower
attr title  "packets sent to lower layer, count"
scalar OrionNetwork.host[2].wlan[0].mac 	sentDownPk:sum(packetBytes) 	174
attr interpolationmode  none
attr source  packetSentToLower
attr title  "packets sent to lower layer, sum(packetBytes)"
scalar OrionNetwork.host[2].udpApp[0] 	"packets sent" 	3
scalar OrionNetwork.host[2].udpApp[0] 	"packets received" 	3
scalar OrionNetwork.host[2].udpApp[0] 	sentPk:count 	3
attr interpolationmode  none
attr source  sentPk
attr title  "packets sent, count"
scalar OrionNetwork.host[2].udpApp[0] 	sentPk:sum(packetBytes) 	60
attr interpolationmode  none
attr source  sentPk
attr title  "packets sent, sum(packetBytes)"
scalar OrionNetwork.host[2].udpApp[0] 	rcvdPk:count 	3
attr interpolationmode  none
attr source  rcvdPk
attr title  "packets received, count"
scalar OrionNetwork.host[2].udpApp[0] 	rcvdPk:sum(packetBytes) 	60
attr interpolationmode  none
attr source  rcvdPk
attr title  "packets received, sum(packetBytes)"
statistic OrionNetwork.host[2].udpApp[0] 	rcvdPkLifetime:stats
field count 3
field mean 0.00023276892033333
field stddev 4.6399739296743e-008
field sum 0.000698306761
field sqrsum 1.6254411512531e-007
field min 0.000232722105
field max 0.000232814893
attr interpolationmode  none
attr source  messageAge(rcvdPk)
attr title  "received packet lifetime, stats"
attr unit  s
scalar OrionNetwork.host[2].udp 	droppedPkBadChecksum:count 	0
attr interpolationmode  none
attr title  "packets dropped (checksum error), count"
scalar OrionNetwork.host[2].udp 	droppedPkWrongPort:count 	0
attr interpolationmode  none
attr title  "packets dropped (wrong port), count"
scalar OrionNetwork.host[2].udp 	passedUpPk:count 	3
attr interpolationmode  none
attr title  "packets passed up, count"
scalar OrionNetwork.host[2].udp 	sentPk:count 	3
attr interpolationmode  none
attr source  sentPk
attr title  "packets sent, count"
scalar OrionNetwork.host[2].udp 	sentPk:sum(packetBytes) 	84
attr interpolationmode  none
attr source  sentPk
attr title  "packets sent, sum(packetBytes)"
scalar OrionNetwork.host[2].udp 	rcvdPk:count 	3
attr interpolationmode  none
attr source  rcvdPk
attr title  "packets received, count"
scalar OrionNetwork.host[2].udp 	rcvdPk:sum(packetBytes) 	84
attr interpolationmode  none
attr source  rcvdPk
attr title  "packets received, sum(packetBytes)"
scalar OrionNetwork.host[3].networkLayer.arp 	initiatedARPResolution:count 	0
attr title  "ARP initiated resolutions, count"
scalar OrionNetwork.host[3].networkLayer.arp 	sentReply:count 	0
attr title  "ARP replies sent, count"
scalar OrionNetwork.host[3].networkLayer.arp 	sentReq:count 	0
attr title  "ARP request sent, count"
scalar OrionNetwork.host[3].networkLayer.arp 	failedARPResolution:count 	0
attr title  "ARP failed resolutions, count"
scalar OrionNetwork.host[3].networkLayer.arp 	completedARPResolution:count 	0
attr title  "ARP completed resolutions, count"
scalar OrionNetwork.host[3].lo0.lo 	rcvdPkFromHL:count 	0
attr interpolationmode  none
attr source  packetReceivedFromUpper
attr title  "packets received from higher layer, count"
scalar OrionNetwork.host[3].lo0.lo 	rcvdPkFromHL:sum(packetBytes) 	0
attr interpolationmode  none
attr source  packetReceivedFromUpper
attr title  "packets received from higher layer, sum(packetBytes)"
scalar OrionNetwork.host[3].lo0.lo 	passedUpPk:count 	0
attr interpolationmode  none
attr source  packetSentToUpper
attr title  "packets passed to higher layer, count"
scalar OrionNetwork.host[3].lo0.lo 	passedUpPk:sum(packetBytes) 	0
attr interpolationmode  none
attr source  packetSentToUpper
attr title  "packets passed to higher layer, sum(packetBytes)"
scalar OrionNetwork.host[3].lo0.lo 	droppedPkBitError:count 	0
attr interpolationmode  none
attr source  dropPkBitError
attr title  "packets dropped/bit error, count"
scalar OrionNetwork.host[3].lo0.lo 	droppedPkBitError:sum(packetBytes) 	0
attr interpolationmode  none
attr source  dropPkBitError
attr title  "packets dropped/bit error, sum(packetBytes)"
statistic OrionNetwork.host[3].wlan[0].queue 	queueingTime:histogram
field count 9
field mean 0
field stddev 0
field sum 0
field sqrsum 0
field min 0
field max 0
attr interpolationmode  none
attr title  "queueing time, histogram"
bin	-INF	0
bin	-0.5	0
bin	-0.46666666666667	0
bin	-0.43333333333333	0
bin	-0.4	0
bin	-0.36666666666667	0
bin	-0.33333333333333	0
bin	-0.3	0
bin	-0.26666666666667	0
bin	-0.23333333333333	0
bin	-0.2	0
bin	-0.16666666666667	0
bin	-0.13333333333333	0
bin	-0.1	0
bin	-0.066666666666667	0
bin	-0.033333333333333	0
bin	-6.9388939039072e-018	9
bin	0.033333333333333	0
bin	0.066666666666667	0
bin	0.1	0
bin	0.13333333333333	0
bin	0.16666666666667	0
bin	0.2	0
bin	0.23333333333333	0
bin	0.26666666666667	0
bin	0.3	0
bin	0.33333333333333	0
bin	0.36666666666667	0
bin	0.4	0
bin	0.43333333333333	0
bin	0.46666666666667	0
bin	0.5	0
scalar OrionNetwork.host[3].wlan[0].queue 	dropPk:count 	0
attr interpolationmode  none
attr source  dropPkByQueue
attr title  "dropped packets, count"
scalar OrionNetwork.host[3].wlan[0].queue 	dropPk:sum(packetBytes) 	0
attr interpolationmode  none
attr source  dropPkByQueue
attr title  "dropped packets, sum(packetBytes)"
scalar OrionNetwork.host[3].wlan[0].queue 	queueLength:max 	0
attr interpolationmode  sample-hold
attr title  "queue length, max"
scalar OrionNetwork.host[3].wlan[0].queue 	queueLength:timeavg 	0
attr interpolationmode  sample-hold
attr title  "queue length, timeavg"
scalar OrionNetwork.host[3].wlan[0].queue 	rcvdPk:count 	9
attr interpolationmode  none
attr title  "received packets, count"
scalar OrionNetwork.host[3].wlan[0].queue 	rcvdPk:sum(packetBytes) 	432
attr interpolationmode  none
attr title  "received packets, sum(packetBytes)"
scalar OrionNetwork.host[3].wlan[0].mac 	droppedPkNotForUs:count 	28
attr interpolationmode  none
attr source  dropPkNotForUs
attr title  "packets dropped/not for us, count"
scalar OrionNetwork.host[3].wlan[0].mac 	droppedPkNotForUs:sum(packetBytes) 	11844
attr interpolationmode  none
attr source  dropPkNotForUs
attr title  "packets dropped/not for us, sum(packetBytes)"
scalar OrionNetwork.host[3].wlan[0].mac 	rcvdPkFromHL:count 	9
attr interpolationmode  none
attr source  packetReceivedFromUpper
attr title  "packets received from higher layer, count"
scalar OrionNetwork.host[3].wlan[0].mac 	rcvdPkFromHL:sum(packetBytes) 	432
attr interpolationmode  none
attr source  packetReceivedFromUpper
attr title  "packets received from higher layer, sum(packetBytes)"
scalar OrionNetwork.host[3].wlan[0].mac 	passedUpPk:count 	39
attr interpolationmode  none
attr source  packetSentToUpper
attr title  "packets passed to higher layer, count"
scalar OrionNetwork.host[3].wlan[0].mac 	passedUpPk:sum(packetBytes) 	1832
attr interpolationmode  none
attr source  packetSentToUpper
attr title  "packets passed to higher layer, sum(packetBytes)"
scalar OrionNetwork.host[3].wlan[0].mac 	rcvdPkFromLL:count 	67
attr interpolationmode  none
attr source  packetReceivedFromLower
attr title  "packets received from lower layer, count"
scalar OrionNetwork.host[3].wlan[0].mac 	rcvdPkFromLL:sum(packetBytes) 	14066
attr interpolationmode  none
attr source  packetReceivedFromLower
attr title  "packets received from lower layer, sum(packetBytes)"
scalar OrionNetwork.host[3].wlan[0].mac 	sentDownPk:count 	9
attr interpolationmode  none
attr source  packetSentToLower
attr title  "packets sent to lower layer, count"
scalar OrionNetwork.host[3].wlan[0].mac 	sentDownPk:sum(packetBytes) 	522
attr interpolationmode  none
attr source  packetSentToLower
attr title  "packets sent to lower layer, sum(packetBytes)"
scalar OrionNetwork.host[3].udpApp[0] 	"packets sent" 	9
scalar OrionNetwork.host[3].udpApp[0] 	"packets received" 	37
scalar OrionNetwork.host[3].udpApp[0] 	sentPk:count 	9
attr interpolationmode  none
attr source  sentPk
attr title  "packets sent, count"
scalar OrionNetwork.host[3].udpApp[0] 	sentPk:sum(packetBytes) 	180
attr interpolationmode  none
attr source  sentPk
attr title  "packets sent, sum(packetBytes)"
scalar OrionNetwork.host[3].udpApp[0] 	rcvdPk:count 	37
attr interpolationmode  none
attr source  rcvdPk
attr title  "packets received, count"
scalar OrionNetwork.host[3].udpApp[0] 	rcvdPk:sum(packetBytes) 	740
attr interpolationmode  none
attr source  rcvdPk
attr title  "packets received, sum(packetBytes)"
statistic OrionNetwork.host[3].udpApp[0] 	rcvdPkLifetime:stats
field count 37
field mean 0.00023247610875676
field stddev 2.072509406286e-007
field sum 0.008601616024
field sqrsum 1.9996717685856e-006
field min 0.000232196802
field max 0.00023281622
attr interpolationmode  none
attr source  messageAge(rcvdPk)
attr title  "received packet lifetime, stats"
attr unit  s
scalar OrionNetwork.host[3].udp 	droppedPkBadChecksum:count 	0
attr interpolationmode  none
attr title  "packets dropped (checksum error), count"
scalar OrionNetwork.host[3].udp 	droppedPkWrongPort:count 	0
attr interpolationmode  none
attr title  "packets dropped (wrong port), count"
scalar OrionNetwork.host[3].udp 	passedUpPk:count 	37
attr interpolationmode  none
attr title  "packets passed up, count"
scalar OrionNetwork.host[3].udp 	sentPk:count 	9
attr interpolationmode  none
attr source  sentPk
attr title  "packets sent, count"
scalar OrionNetwork.host[3].udp 	sentPk:sum(packetBytes) 	252
attr interpolationmode  none
attr source  sentPk
attr title  "packets sent, sum(packetBytes)"
scalar OrionNetwork.host[3].udp 	rcvdPk:count 	37
attr interpolationmode  none
attr source  rcvdPk
attr title  "packets received, count"
scalar OrionNetwork.host[3].udp 	rcvdPk:sum(packetBytes) 	1036
attr interpolationmode  none
attr source  rcvdPk
attr title  "packets received, sum(packetBytes)"
scalar OrionNetwork.host[4].networkLayer.arp 	initiatedARPResolution:count 	1
attr title  "ARP initiated resolutions, count"
scalar OrionNetwork.host[4].networkLayer.arp 	sentReply:count 	0
attr title  "ARP replies sent, count"
scalar OrionNetwork.host[4].networkLayer.arp 	sentReq:count 	1
attr title  "ARP request sent, count"
scalar OrionNetwork.host[4].networkLayer.arp 	failedARPResolution:count 	0
attr title  "ARP failed resolutions, count"
scalar OrionNetwork.host[4].networkLayer.arp 	completedARPResolution:count 	2
attr title  "ARP completed resolutions, count"
scalar OrionNetwork.host[4].lo0.lo 	rcvdPkFromHL:count 	0
attr interpolationmode  none
attr source  packetReceivedFromUpper
attr title  "packets received from higher layer, count"
scalar OrionNetwork.host[4].lo0.lo 	rcvdPkFromHL:sum(packetBytes) 	0
attr interpolationmode  none
attr source  packetReceivedFromUpper
attr title  "packets received from higher layer, sum(packetBytes)"
scalar OrionNetwork.host[4].lo0.lo 	passedUpPk:count 	0
attr interpolationmode  none
attr source  packetSentToUpper
attr title  "packets passed to higher layer, count"
scalar OrionNetwork.host[4].lo0.lo 	passedUpPk:sum(packetBytes) 	0
attr interpolationmode  none
attr source  packetSentToUpper
attr title  "packets passed to higher layer, sum(packetBytes)"
scalar OrionNetwork.host[4].lo0.lo 	droppedPkBitError:count 	0
attr interpolationmode  none
attr source  dropPkBitError
attr title  "packets dropped/bit error, count"
scalar OrionNetwork.host[4].lo0.lo 	droppedPkBitError:sum(packetBytes) 	0
attr interpolationmode  none
attr source  dropPkBitError
attr title  "packets dropped/bit error, sum(packetBytes)"
statistic OrionNetwork.host[4].wlan[0].queue 	queueingTime:histogram
field count 32
field mean 0.0019748218516875
field stddev 0.002597982446992
field sum 0.063194299254
field sqrsum 0.00033403237971012
field min 0
field max 0.008686570189
attr interpolationmode  none
attr title  "queueing time, histogram"
bin	-INF	0
bin	-0.0043432850945	0
bin	-0.0037641804152333	0
bin	-0.0031850757359667	0
bin	-0.0026059710567	0
bin	-0.0020268663774333	0
bin	-0.0014477616981667	0
bin	-0.0008686570189	0
bin	-0.00028955233963333	18
bin	0.00028955233963333	0
bin	0.0008686570189	0
bin	0.0014477616981667	2
bin	0.0020268663774333	0
bin	0.0026059710567	2
bin	0.0031850757359667	0
bin	0.0037641804152333	4
bin	0.0043432850945	2
bin	0.0049223897737667	1
bin	0.0055014944530333	1
bin	0.0060805991323	0
bin	0.0066597038115667	0
bin	0.0072388084908333	0
bin	0.0078179131701	0
bin	0.0083970178493667	2
bin	0.0089761225286333	0
bin	0.0095552272079	0
bin	0.010134331887167	0
bin	0.010713436566433	0
bin	0.0112925412457	0
bin	0.011871645924967	0
bin	0.012450750604233	0
bin	0.0130298552835	0
scalar OrionNetwork.host[4].wlan[0].queue 	dropPk:count 	0
attr interpolationmode  none
attr source  dropPkByQueue
attr title  "dropped packets, count"
scalar OrionNetwork.host[4].wlan[0].queue 	dropPk:sum(packetBytes) 	0
attr interpolationmode  none
attr source  dropPkByQueue
attr title  "dropped packets, sum(packetBytes)"
scalar OrionNetwork.host[4].wlan[0].queue 	queueLength:max 	4
attr interpolationmode  sample-hold
attr title  "queue length, max"
scalar OrionNetwork.host[4].wlan[0].queue 	queueLength:timeavg 	0.00126388598508
attr interpolationmode  sample-hold
attr title  "queue length, timeavg"
scalar OrionNetwork.host[4].wlan[0].queue 	rcvdPk:count 	32
attr interpolationmode  none
attr title  "received packets, count"
scalar OrionNetwork.host[4].wlan[0].queue 	rcvdPk:sum(packetBytes) 	11756
attr interpolationmode  none
attr title  "received packets, sum(packetBytes)"
scalar OrionNetwork.host[4].wlan[0].mac 	droppedPkNotForUs:count 	53
attr interpolationmode  none
attr source  dropPkNotForUs
attr title  "packets dropped/not for us, count"
scalar OrionNetwork.host[4].wlan[0].mac 	droppedPkNotForUs:sum(packetBytes) 	23474
attr interpolationmode  none
attr source  dropPkNotForUs
attr title  "packets dropped/not for us, sum(packetBytes)"
scalar OrionNetwork.host[4].wlan[0].mac 	rcvdPkFromHL:count 	32
attr interpolationmode  none
attr source  packetReceivedFromUpper
attr title  "packets received from higher layer, count"
scalar OrionNetwork.host[4].wlan[0].mac 	rcvdPkFromHL:sum(packetBytes) 	11756
attr interpolationmode  none
attr source  packetReceivedFromUpper
attr title  "packets received from higher layer, sum(packetBytes)"
scalar OrionNetwork.host[4].wlan[0].mac 	passedUpPk:count 	45
attr interpolationmode  none
attr source  packetSentToUpper
attr title  "packets passed to higher layer, count"
scalar OrionNetwork.host[4].wlan[0].mac 	passedUpPk:sum(packetBytes) 	2060
attr interpolationmode  none
attr source  packetSentToUpper
attr title  "packets passed to higher layer, sum(packetBytes)"
scalar OrionNetwork.host[4].wlan[0].mac 	rcvdPkFromLL:count 	98
attr interpolationmode  none
attr source  packetReceivedFromLower
attr title  "packets received from lower layer, count"
scalar OrionNetwork.host[4].wlan[0].mac 	rcvdPkFromLL:sum(packetBytes) 	25984
attr interpolationmode  none
attr source  packetReceivedFromLower
attr title  "packets received from lower layer, sum(packetBytes)"
scalar OrionNetwork.host[4].wlan[0].mac 	sentDownPk:count 	32
attr interpolationmode  none
attr source  packetSentToLower
attr title  "packets sent to lower layer, count"
scalar OrionNetwork.host[4].wlan[0].mac 	sentDownPk:sum(packetBytes) 	12076
attr interpolationmode  none
attr source  packetSentToLower
attr title  "packets sent to lower layer, sum(packetBytes)"
scalar OrionNetwork.host[4].udpApp[0] 	"packets sent" 	9
scalar OrionNetwork.host[4].udpApp[0] 	"packets received" 	40
scalar OrionNetwork.host[4].udpApp[0] 	sentPk:count 	21
attr interpolationmode  none
attr source  sentPk
attr title  "packets sent, count"
scalar OrionNetwork.host[4].udpApp[0] 	sentPk:sum(packetBytes) 	380
attr interpolationmode  none
attr source  sentPk
attr title  "packets sent, sum(packetBytes)"
scalar OrionNetwork.host[4].udpApp[0] 	rcvdPk:count 	40
attr interpolationmode  none
attr source  rcvdPk
attr title  "packets received, count"
scalar OrionNetwork.host[4].udpApp[0] 	rcvdPk:sum(packetBytes) 	800
attr interpolationmode  none
attr source  rcvdPk
attr title  "packets received, sum(packetBytes)"
statistic OrionNetwork.host[4].udpApp[0] 	rcvdPkLifetime:stats
field count 40
field mean 0.000997613018025
field stddev 0.001519732443303
field sum 0.039904520721
field sqrsum 0.00012988315061919
field min 0.000232078752
field max 0.005703548605
attr interpolationmode  none
attr source  messageAge(rcvdPk)
attr title  "received packet lifetime, stats"
attr unit  s
scalar OrionNetwork.host[4].udp 	droppedPkBadChecksum:count 	0
attr interpolationmode  none
attr title  "packets dropped (checksum error), count"
scalar OrionNetwork.host[4].udp 	droppedPkWrongPort:count 	0
attr interpolationmode  none
attr title  "packets dropped (wrong port), count"
scalar OrionNetwork.host[4].udp 	passedUpPk:count 	40
attr interpolationmode  none
attr title  "packets passed up, count"
scalar OrionNetwork.host[4].udp 	sentPk:count 	31
attr interpolationmode  none
attr source  sentPk
attr title  "packets sent, count"
scalar OrionNetwork.host[4].udp 	sentPk:sum(packetBytes) 	11108
attr interpolationmode  none
attr source  sentPk
attr title  "packets sent, sum(packetBytes)"
scalar OrionNetwork.host[4].udp 	rcvdPk:count 	40
attr interpolationmode  none
attr source  rcvdPk
attr title  "packets received, count"
scalar OrionNetwork.host[4].udp 	rcvdPk:sum(packetBytes) 	1120
attr interpolationmode  none
attr source  rcvdPk
attr title  "packets received, sum(packetBytes)"
scalar OrionNetwork.host[5].networkLayer.arp 	initiatedARPResolution:count 	0
attr title  "ARP initiated resolutions, count"
scalar OrionNetwork.host[5].networkLayer.arp 	sentReply:count 	0
attr title  "ARP replies sent, count"
scalar OrionNetwork.host[5].networkLayer.arp 	sentReq:count 	0
attr title  "ARP request sent, count"
scalar OrionNetwork.host[5].networkLayer.arp 	failedARPResolution:count 	0
attr title  "ARP failed resolutions, count"
scalar OrionNetwork.host[5].networkLayer.arp 	completedARPResolution:count 	0
attr title  "ARP completed resolutions, count"
scalar OrionNetwork.host[5].lo0.lo 	rcvdPkFromHL:count 	0
attr interpolationmode  none
attr source  packetReceivedFromUpper
attr title  "packets received from higher layer, count"
scalar OrionNetwork.host[5].lo0.lo 	rcvdPkFromHL:sum(packetBytes) 	0
attr interpolationmode  none
attr source  packetReceivedFromUpper
attr title  "packets received from higher layer, sum(packetBytes)"
scalar OrionNetwork.host[5].lo0.lo 	passedUpPk:count 	0
attr interpolationmode  none
attr source  packetSentToUpper
attr title  "packets passed to higher layer, count"
scalar OrionNetwork.host[5].lo0.lo 	passedUpPk:sum(packetBytes) 	0
attr interpolationmode  none
attr source  packetSentToUpper
attr title  "packets passed to higher layer, sum(packetBytes)"
scalar OrionNetwork.host[5].lo0.lo 	droppedPkBitError:count 	0
attr interpolationmode  none
attr source  dropPkBitError
attr title  "packets dropped/bit error, count"
scalar OrionNetwork.host[5].lo0.lo 	droppedPkBitError:sum(packetBytes) 	0
attr interpolationmode  none
attr source  dropPkBitError
attr title  "packets dropped/bit error, sum(packetBytes)"
statistic OrionNetwork.host[5].wlan[0].queue 	queueingTime:histogram
field count 9
field mean 0
field stddev 0
field sum 0
field sqrsum 0
field min 0
field max 0
attr interpolationmode  none
attr title  "queueing time, histogram"
bin	-INF	0
bin	-0.5	0
bin	-0.46666666666667	0
bin	-0.43333333333333	0
bin	-0.4	0
bin	-0.36666666666667	0
bin	-0.33333333333333	0
bin	-0.3	0
bin	-0.26666666666667	0
bin	-0.23333333333333	0
bin	-0.2	0
bin	-0.16666666666667	0
bin	-0.13333333333333	0
bin	-0.1	0
bin	-0.066666666666667	0
bin	-0.033333333333333	0
bin	-6.9388939039072e-018	9
bin	0.033333333333333	0
bin	0.066666666666667	0
bin	0.1	0
bin	0.13333333333333	0
bin	0.16666666666667	0
bin	0.2	0
bin	0.23333333333333	0
bin	0.26666666666667	0
bin	0.3	0
bin	0.33333333333333	0
bin	0.36666666666667	0
bin	0.4	0
bin	0.43333333333333	0
bin	0.46666666666667	0
bin	0.5	0
scalar OrionNetwork.host[5].wlan[0].queue 	dropPk:count 	0
attr interpolationmode  none
attr source  dropPkByQueue
attr title  "dropped packets, count"
scalar OrionNetwork.host[5].wlan[0].queue 	dropPk:sum(packetBytes) 	0
attr interpolationmode  none
attr source  dropPkByQueue
attr title  "dropped packets, sum(packetBytes)"
scalar OrionNetwork.host[5].wlan[0].queue 	queueLength:max 	0
attr interpolationmode  sample-hold
attr title  "queue length, max"
scalar OrionNetwork.host[5].wlan[0].queue 	queueLength:timeavg 	0
attr interpolationmode  sample-hold
attr title  "queue length, timeavg"
scalar OrionNetwork.host[5].wlan[0].queue 	rcvdPk:count 	9
attr interpolationmode  none
attr title  "received packets, count"
scalar OrionNetwork.host[5].wlan[0].queue 	rcvdPk:sum(packetBytes) 	432
attr interpolationmode  none
attr title  "received packets, sum(packetBytes)"
scalar OrionNetwork.host[5].wlan[0].mac 	droppedPkNotForUs:count 	11
attr interpolationmode  none
attr source  dropPkNotForUs
attr title  "packets dropped/not for us, count"
scalar OrionNetwork.host[5].wlan[0].mac 	droppedPkNotForUs:sum(packetBytes) 	5758
attr interpolationmode  none
attr source  dropPkNotForUs
attr title  "packets dropped/not for us, sum(packetBytes)"
scalar OrionNetwork.host[5].wlan[0].mac 	rcvdPkFromHL:count 	9
attr interpolationmode  none
attr source  packetReceivedFromUpper
attr title  "packets received from higher layer, count"
scalar OrionNetwork.host[5].wlan[0].mac 	rcvdPkFromHL:sum(packetBytes) 	432
attr interpolationmode  none
attr source  packetReceivedFromUpper
attr title  "packets received from higher layer, sum(packetBytes)"
scalar OrionNetwork.host[5].wlan[0].mac 	passedUpPk:count 	38
attr interpolationmode  none
attr source  packetSentToUpper
attr title  "packets passed to higher layer, count"
scalar OrionNetwork.host[5].wlan[0].mac 	passedUpPk:sum(packetBytes) 	1804
attr interpolationmode  none
attr source  packetSentToUpper
attr title  "packets passed to higher layer, sum(packetBytes)"
scalar OrionNetwork.host[5].wlan[0].mac 	rcvdPkFromLL:count 	49
attr interpolationmode  none
attr source  packetReceivedFromLower
attr title  "packets received from lower layer, count"
scalar OrionNetwork.host[5].wlan[0].mac 	rcvdPkFromLL:sum(packetBytes) 	7942
attr interpolationmode  none
attr source  packetReceivedFromLower
attr title  "packets received from lower layer, sum(packetBytes)"
scalar OrionNetwork.host[5].wlan[0].mac 	sentDownPk:count 	9
attr interpolationmode  none
attr source  packetSentToLower
attr title  "packets sent to lower layer, count"
scalar OrionNetwork.host[5].wlan[0].mac 	sentDownPk:sum(packetBytes) 	522
attr interpolationmode  none
attr source  packetSentToLower
attr title  "packets sent to lower layer, sum(packetBytes)"
scalar OrionNetwork.host[5].udpApp[0] 	"packets sent" 	9
scalar OrionNetwork.host[5].udpApp[0] 	"packets received" 	37
scalar OrionNetwork.host[5].udpApp[0] 	sentPk:count 	9
attr interpolationmode  none
attr source  sentPk
attr title  "packets sent, count"
scalar OrionNetwork.host[5].udpApp[0] 	sentPk:sum(packetBytes) 	180
attr interpolationmode  none
attr source  sentPk
attr title  "packets sent, sum(packetBytes)"
scalar OrionNetwork.host[5].udpApp[0] 	rcvdPk:count 	37
attr interpolationmode  none
attr source  rcvdPk
attr title  "packets received, count"
scalar OrionNetwork.host[5].udpApp[0] 	rcvdPk:sum(packetBytes) 	740
attr interpolationmode  none
attr source  rcvdPk
attr title  "packets received, sum(packetBytes)"
statistic OrionNetwork.host[5].udpApp[0] 	rcvdPkLifetime:stats
field count 37
field mean 0.0002326607127027
field stddev 1.6802989110627e-007
field sum 0.00860844637
field sqrsum 2.0028482841328e-006
field min 0.000232258416
field max 0.000232815186
attr interpolationmode  none
attr source  messageAge(rcvdPk)
attr title  "received packet lifetime, stats"
attr unit  s
scalar OrionNetwork.host[5].udp 	droppedPkBadChecksum:count 	0
attr interpolationmode  none
attr title  "packets dropped (checksum error), count"
scalar OrionNetwork.host[5].udp 	droppedPkWrongPort:count 	0
attr interpolationmode  none
attr title  "packets dropped (wrong port), count"
scalar OrionNetwork.host[5].udp 	passedUpPk:count 	37
attr interpolationmode  none
attr title  "packets passed up, count"
scalar OrionNetwork.host[5].udp 	sentPk:count 	9
attr interpolationmode  none
attr source  sentPk
attr title  "packets sent, count"
scalar OrionNetwork.host[5].udp 	sentPk:sum(packetBytes) 	252
attr interpolationmode  none
attr source  sentPk
attr title  "packets sent, sum(packetBytes)"
scalar OrionNetwork.host[5].udp 	rcvdPk:count 	37
attr interpolationmode  none
attr source  rcvdPk
attr title  "packets received, count"
scalar OrionNetwork.host[5].udp 	rcvdPk:sum(packetBytes) 	1036
attr interpolationmode  none
attr source  rcvdPk
attr title  "packets received, sum(packetBytes)"
scalar OrionNetwork.host[6].networkLayer.arp 	initiatedARPResolution:count 	0
attr title  "ARP initiated resolutions, count"
scalar OrionNetwork.host[6].networkLayer.arp 	sentReply:count 	0
attr title  "ARP replies sent, count"
scalar OrionNetwork.host[6].networkLayer.arp 	sentReq:count 	0
attr title  "ARP request sent, count"
scalar OrionNetwork.host[6].networkLayer.arp 	failedARPResolution:count 	0
attr title  "ARP failed resolutions, count"
scalar OrionNetwork.host[6].networkLayer.arp 	completedARPResolution:count 	0
attr title  "ARP completed resolutions, count"
scalar OrionNetwork.host[6].lo0.lo 	rcvdPkFromHL:count 	0
attr interpolationmode  none
attr source  packetReceivedFromUpper
attr title  "packets received from higher layer, count"
scalar OrionNetwork.host[6].lo0.lo 	rcvdPkFromHL:sum(packetBytes) 	0
attr interpolationmode  none
attr source  packetReceivedFromUpper
attr title  "packets received from higher layer, sum(packetBytes)"
scalar OrionNetwork.host[6].lo0.lo 	passedUpPk:count 	0
attr interpolationmode  none
attr source  packetSentToUpper
attr title  "packets passed to higher layer, count"
scalar OrionNetwork.host[6].lo0.lo 	passedUpPk:sum(packetBytes) 	0
attr interpolationmode  none
attr source  packetSentToUpper
attr title  "packets passed to higher layer, sum(packetBytes)"
scalar OrionNetwork.host[6].lo0.lo 	droppedPkBitError:count 	0
attr interpolationmode  none
attr source  dropPkBitError
attr title  "packets dropped/bit error, count"
scalar OrionNetwork.host[6].lo0.lo 	droppedPkBitError:sum(packetBytes) 	0
attr interpolationmode  none
attr source  dropPkBitError
attr title  "packets dropped/bit error, sum(packetBytes)"
statistic OrionNetwork.host[6].wlan[0].queue 	queueingTime:histogram
field count 9
field mean 0
field stddev 0
field sum 0
field sqrsum 0
field min 0
field max 0
attr interpolationmode  none
attr title  "queueing time, histogram"
bin	-INF	0
bin	-0.5	0
bin	-0.46666666666667	0
bin	-0.43333333333333	0
bin	-0.4	0
bin	-0.36666666666667	0
bin	-0.33333333333333	0
bin	-0.3	0
bin	-0.26666666666667	0
bin	-0.23333333333333	0
bin	-0.2	0
bin	-0.16666666666667	0
bin	-0.13333333333333	0
bin	-0.1	0
bin	-0.066666666666667	0
bin	-0.033333333333333	0
bin	-6.9388939039072e-018	9
bin	0.033333333333333	0
bin	0.066666666666667	0
bin	0.1	0
bin	0.13333333333333	0
bin	0.16666666666667	0
bin	0.2	0
bin	0.23333333333333	0
bin	0.26666666666667	0
bin	0.3	0
bin	0.33333333333333	0
bin	0.36666666666667	0
bin	0.4	0
bin	0.43333333333333	0
bin	0.46666666666667	0
bin	0.5	0
scalar OrionNetwork.host[6].wlan[0].queue 	dropPk:count 	0
attr interpolationmode  none
attr source  dropPkByQueue
attr title  "dropped packets, count"
scalar OrionNetwork.host[6].wlan[0].queue 	dropPk:sum(packetBytes) 	0
attr interpolationmode  none
attr source  dropPkByQueue
attr title  "dropped packets, sum(packetBytes)"
scalar OrionNetwork.host[6].wlan[0].queue 	queueLength:max 	0
attr interpolationmode  sample-hold
attr title  "queue length, max"
scalar OrionNetwork.host[6].wlan[0].queue 	queueLength:timeavg 	0
attr interpolationmode  sample-hold
attr title  "queue length, timeavg"
scalar OrionNetwork.host[6].wlan[0].queue 	rcvdPk:count 	9
attr interpolationmode  none
attr title  "received packets, count"
scalar OrionNetwork.host[6].wlan[0].queue 	rcvdPk:sum(packetBytes) 	432
attr interpolationmode  none
attr title  "received packets, sum(packetBytes)"
scalar OrionNetwork.host[6].wlan[0].mac 	droppedPkNotForUs:count 	57
attr interpolationmode  none
attr source  dropPkNotForUs
attr title  "packets dropped/not for us, count"
scalar OrionNetwork.host[6].wlan[0].mac 	droppedPkNotForUs:sum(packetBytes) 	23726
attr interpolationmode  none
attr source  dropPkNotForUs
attr title  "packets dropped/not for us, sum(packetBytes)"
scalar OrionNetwork.host[6].wlan[0].mac 	rcvdPkFromHL:count 	9
attr interpolationmode  none
attr source  packetReceivedFromUpper
attr title  "packets received from higher layer, count"
scalar OrionNetwork.host[6].wlan[0].mac 	rcvdPkFromHL:sum(packetBytes) 	432
attr interpolationmode  none
attr source  packetReceivedFromUpper
attr title  "packets received from higher layer, sum(packetBytes)"
scalar OrionNetwork.host[6].wlan[0].mac 	passedUpPk:count 	59
attr interpolationmode  none
attr source  packetSentToUpper
attr title  "packets passed to higher layer, count"
scalar OrionNetwork.host[6].wlan[0].mac 	passedUpPk:sum(packetBytes) 	2792
attr interpolationmode  none
attr source  packetSentToUpper
attr title  "packets passed to higher layer, sum(packetBytes)"
scalar OrionNetwork.host[6].wlan[0].mac 	rcvdPkFromLL:count 	116
attr interpolationmode  none
attr source  packetReceivedFromLower
attr title  "packets received from lower layer, count"
scalar OrionNetwork.host[6].wlan[0].mac 	rcvdPkFromLL:sum(packetBytes) 	27108
attr interpolationmode  none
attr source  packetReceivedFromLower
attr title  "packets received from lower layer, sum(packetBytes)"
scalar OrionNetwork.host[6].wlan[0].mac 	sentDownPk:count 	9
attr interpolationmode  none
attr source  packetSentToLower
attr title  "packets sent to lower layer, count"
scalar OrionNetwork.host[6].wlan[0].mac 	sentDownPk:sum(packetBytes) 	522
attr interpolationmode  none
attr source  packetSentToLower
attr title  "packets sent to lower layer, sum(packetBytes)"
scalar OrionNetwork.host[6].udpApp[0] 	"packets sent" 	9
scalar OrionNetwork.host[6].udpApp[0] 	"packets received" 	57
scalar OrionNetwork.host[6].udpApp[0] 	sentPk:count 	9
attr interpolationmode  none
attr source  sentPk
attr title  "packets sent, count"
scalar OrionNetwork.host[6].udpApp[0] 	sentPk:sum(packetBytes) 	180
attr interpolationmode  none
attr source  sentPk
attr title  "packets sent, sum(packetBytes)"
scalar OrionNetwork.host[6].udpApp[0] 	rcvdPk:count 	57
attr interpolationmode  none
attr source  rcvdPk
attr title  "packets received, count"
scalar OrionNetwork.host[6].udpApp[0] 	rcvdPk:sum(packetBytes) 	1140
attr interpolationmode  none
attr source  rcvdPk
attr title  "packets received, sum(packetBytes)"
statistic OrionNetwork.host[6].udpApp[0] 	rcvdPkLifetime:stats
field count 57
field mean 0.00023258968282456
field stddev 1.305747600337e-007
field sum 0.013257611921
field sqrsum 3.0835847065035e-006
field min 0.000232258416
field max 0.000232828532
attr interpolationmode  none
attr source  messageAge(rcvdPk)
attr title  "received packet lifetime, stats"
attr unit  s
scalar OrionNetwork.host[6].udp 	droppedPkBadChecksum:count 	0
attr interpolationmode  none
attr title  "packets dropped (checksum error), count"
scalar OrionNetwork.host[6].udp 	droppedPkWrongPort:count 	0
attr interpolationmode  none
attr title  "packets dropped (wrong port), count"
scalar OrionNetwork.host[6].udp 	passedUpPk:count 	57
attr interpolationmode  none
attr title  "packets passed up, count"
scalar OrionNetwork.host[6].udp 	sentPk:count 	9
attr interpolationmode  none
attr source  sentPk
attr title  "packets sent, count"
scalar OrionNetwork.host[6].udp 	sentPk:sum(packetBytes) 	252
attr interpolationmode  none
attr source  sentPk
attr title  "packets sent, sum(packetBytes)"
scalar OrionNetwork.host[6].udp 	rcvdPk:count 	57
attr interpolationmode  none
attr source  rcvdPk
attr title  "packets received, count"
scalar OrionNetwork.host[6].udp 	rcvdPk:sum(packetBytes) 	1596
attr interpolationmode  none
attr source  rcvdPk
attr title  "packets received, sum(packetBytes)"
scalar OrionNetwork.host[7].networkLayer.arp 	initiatedARPResolution:count 	1
attr title  "ARP initiated resolutions, count"
scalar OrionNetwork.host[7].networkLayer.arp 	sentReply:count 	1
attr title  "ARP replies sent, count"
scalar OrionNetwork.host[7].networkLayer.arp 	sentReq:count 	1
attr title  "ARP request sent, count"
scalar OrionNetwork.host[7].networkLayer.arp 	failedARPResolution:count 	0
attr title  "ARP failed resolutions, count"
scalar OrionNetwork.host[7].networkLayer.arp 	completedARPResolution:count 	3
attr title  "ARP completed resolutions, count"
scalar OrionNetwork.host[7].lo0.lo 	rcvdPkFromHL:count 	0
attr interpolationmode  none
attr source  packetReceivedFromUpper
attr title  "packets received from higher layer, count"
scalar OrionNetwork.host[7].lo0.lo 	rcvdPkFromHL:sum(packetBytes) 	0
attr interpolationmode  none
attr source  packetReceivedFromUpper
attr title  "packets received from higher layer, sum(packetBytes)"
scalar OrionNetwork.host[7].lo0.lo 	passedUpPk:count 	0
attr interpolationmode  none
attr source  packetSentToUpper
attr title  "packets passed to higher layer, count"
scalar OrionNetwork.host[7].lo0.lo 	passedUpPk:sum(packetBytes) 	0
attr interpolationmode  none
attr source  packetSentToUpper
attr title  "packets passed to higher layer, sum(packetBytes)"
scalar OrionNetwork.host[7].lo0.lo 	droppedPkBitError:count 	0
attr interpolationmode  none
attr source  dropPkBitError
attr title  "packets dropped/bit error, count"
scalar OrionNetwork.host[7].lo0.lo 	droppedPkBitError:sum(packetBytes) 	0
attr interpolationmode  none
attr source  dropPkBitError
attr title  "packets dropped/bit error, sum(packetBytes)"
statistic OrionNetwork.host[7].wlan[0].queue 	queueingTime:histogram
field count 27
field mean 0.00033543933359259
field stddev 0.00070777241395276
field sum 0.009056862007
field sqrsum 1.6062514294834e-005
field min 0
field max 0.002740070948
attr interpolationmode  none
attr title  "queueing time, histogram"
bin	-INF	0
bin	-0.001370035474	0
bin	-0.0011873640774667	0
bin	-0.0010046926809333	0
bin	-0.0008220212844	0
bin	-0.00063934988786667	0
bin	-0.00045667849133333	0
bin	-0.0002740070948	0
bin	-9.1335698266667e-005	17
bin	9.1335698266667e-005	4
bin	0.0002740070948	0
bin	0.00045667849133333	1
bin	0.00063934988786667	2
bin	0.0008220212844	1
bin	0.0010046926809333	0
bin	0.0011873640774667	0
bin	0.001370035474	0
bin	0.0015527068705333	0
bin	0.0017353782670667	0
bin	0.0019180496636	0
bin	0.0021007210601333	0
bin	0.0022833924566667	0
bin	0.0024660638532	1
bin	0.0026487352497333	1
bin	0.0028314066462667	0
bin	0.0030140780428	0
bin	0.0031967494393333	0
bin	0.0033794208358667	0
bin	0.0035620922324	0
bin	0.0037447636289333	0
bin	0.0039274350254667	0
bin	0.004110106422	0
scalar OrionNetwork.host[7].wlan[0].queue 	dropPk:count 	0
attr interpolationmode  none
attr source  dropPkByQueue
attr title  "dropped packets, count"
scalar OrionNetwork.host[7].wlan[0].queue 	dropPk:sum(packetBytes) 	0
attr interpolationmode  none
attr source  dropPkByQueue
attr title  "dropped packets, sum(packetBytes)"
scalar OrionNetwork.host[7].wlan[0].queue 	queueLength:max 	4
attr interpolationmode  sample-hold
attr title  "queue length, max"
scalar OrionNetwork.host[7].wlan[0].queue 	queueLength:timeavg 	0.00018113724014
attr interpolationmode  sample-hold
attr title  "queue length, timeavg"
scalar OrionNetwork.host[7].wlan[0].queue 	rcvdPk:count 	27
attr interpolationmode  none
attr title  "received packets, count"
scalar OrionNetwork.host[7].wlan[0].queue 	rcvdPk:sum(packetBytes) 	6376
attr interpolationmode  none
attr title  "received packets, sum(packetBytes)"
scalar OrionNetwork.host[7].wlan[0].mac 	droppedPkNotForUs:count 	230
attr interpolationmode  none
attr source  dropPkNotForUs
attr title  "packets dropped/not for us, count"
scalar OrionNetwork.host[7].wlan[0].mac 	droppedPkNotForUs:sum(packetBytes) 	89940
attr interpolationmode  none
attr source  dropPkNotForUs
attr title  "packets dropped/not for us, sum(packetBytes)"
scalar OrionNetwork.host[7].wlan[0].mac 	rcvdPkFromHL:count 	27
attr interpolationmode  none
attr source  packetReceivedFromUpper
attr title  "packets received from higher layer, count"
scalar OrionNetwork.host[7].wlan[0].mac 	rcvdPkFromHL:sum(packetBytes) 	6376
attr interpolationmode  none
attr source  packetReceivedFromUpper
attr title  "packets received from higher layer, sum(packetBytes)"
scalar OrionNetwork.host[7].wlan[0].mac 	passedUpPk:count 	118
attr interpolationmode  none
attr source  packetSentToUpper
attr title  "packets passed to higher layer, count"
scalar OrionNetwork.host[7].wlan[0].mac 	passedUpPk:sum(packetBytes) 	10624
attr interpolationmode  none
attr source  packetSentToUpper
attr title  "packets passed to higher layer, sum(packetBytes)"
scalar OrionNetwork.host[7].wlan[0].mac 	rcvdPkFromLL:count 	348
attr interpolationmode  none
attr source  packetReceivedFromLower
attr title  "packets received from lower layer, count"
scalar OrionNetwork.host[7].wlan[0].mac 	rcvdPkFromLL:sum(packetBytes) 	101744
attr interpolationmode  none
attr source  packetReceivedFromLower
attr title  "packets received from lower layer, sum(packetBytes)"
scalar OrionNetwork.host[7].wlan[0].mac 	sentDownPk:count 	27
attr interpolationmode  none
attr source  packetSentToLower
attr title  "packets sent to lower layer, count"
scalar OrionNetwork.host[7].wlan[0].mac 	sentDownPk:sum(packetBytes) 	6646
attr interpolationmode  none
attr source  packetSentToLower
attr title  "packets sent to lower layer, sum(packetBytes)"
scalar OrionNetwork.host[7].udpApp[0] 	"packets sent" 	9
scalar OrionNetwork.host[7].udpApp[0] 	"packets received" 	110
scalar OrionNetwork.host[7].udpApp[0] 	sentPk:count 	14
attr interpolationmode  none
attr source  sentPk
attr title  "packets sent, count"
scalar OrionNetwork.host[7].udpApp[0] 	sentPk:sum(packetBytes) 	280
attr interpolationmode  none
attr source  sentPk
attr title  "packets sent, sum(packetBytes)"
scalar OrionNetwork.host[7].udpApp[0] 	rcvdPk:count 	110
attr interpolationmode  none
attr source  rcvdPk
attr title  "packets received, count"
scalar OrionNetwork.host[7].udpApp[0] 	rcvdPk:sum(packetBytes) 	7320
attr interpolationmode  none
attr source  rcvdPk
attr title  "packets received, sum(packetBytes)"
statistic OrionNetwork.host[7].udpApp[0] 	rcvdPkLifetime:stats
field count 110
field mean 0.00081261193952727
field stddev 0.0020539382003184
field sum 0.089387313348
field sqrsum 0.0005324713703181
field min 0.000232226218
field max 0.013006010095
attr interpolationmode  none
attr source  messageAge(rcvdPk)
attr title  "received packet lifetime, stats"
attr unit  s
scalar OrionNetwork.host[7].udp 	droppedPkBadChecksum:count 	0
attr interpolationmode  none
attr title  "packets dropped (checksum error), count"
scalar OrionNetwork.host[7].udp 	droppedPkWrongPort:count 	0
attr interpolationmode  none
attr title  "packets dropped (wrong port), count"
scalar OrionNetwork.host[7].udp 	passedUpPk:count 	110
attr interpolationmode  none
attr title  "packets passed up, count"
scalar OrionNetwork.host[7].udp 	sentPk:count 	25
attr interpolationmode  none
attr source  sentPk
attr title  "packets sent, count"
scalar OrionNetwork.host[7].udp 	sentPk:sum(packetBytes) 	5820
attr interpolationmode  none
attr source  sentPk
attr title  "packets sent, sum(packetBytes)"
scalar OrionNetwork.host[7].udp 	rcvdPk:count 	110
attr interpolationmode  none
attr source  rcvdPk
attr title  "packets received, count"
scalar OrionNetwork.host[7].udp 	rcvdPk:sum(packetBytes) 	8200
attr interpolationmode  none
attr source  rcvdPk
attr title  "packets received, sum(packetBytes)"
scalar OrionNetwork.host[8].networkLayer.arp 	initiatedARPResolution:count 	1
attr title  "ARP initiated resolutions, count"
scalar OrionNetwork.host[8].networkLayer.arp 	sentReply:count 	0
attr title  "ARP replies sent, count"
scalar OrionNetwork.host[8].networkLayer.arp 	sentReq:count 	1
attr title  "ARP request sent, count"
scalar OrionNetwork.host[8].networkLayer.arp 	failedARPResolution:count 	0
attr title  "ARP failed resolutions, count"
scalar OrionNetwork.host[8].networkLayer.arp 	completedARPResolution:count 	2
attr title  "ARP completed resolutions, count"
scalar OrionNetwork.host[8].lo0.lo 	rcvdPkFromHL:count 	0
attr interpolationmode  none
attr source  packetReceivedFromUpper
attr title  "packets received from higher layer, count"
scalar OrionNetwork.host[8].lo0.lo 	rcvdPkFromHL:sum(packetBytes) 	0
attr interpolationmode  none
attr source  packetReceivedFromUpper
attr title  "packets received from higher layer, sum(packetBytes)"
scalar OrionNetwork.host[8].lo0.lo 	passedUpPk:count 	0
attr interpolationmode  none
attr source  packetSentToUpper
attr title  "packets passed to higher layer, count"
scalar OrionNetwork.host[8].lo0.lo 	passedUpPk:sum(packetBytes) 	0
attr interpolationmode  none
attr source  packetSentToUpper
attr title  "packets passed to higher layer, sum(packetBytes)"
scalar OrionNetwork.host[8].lo0.lo 	droppedPkBitError:count 	0
attr interpolationmode  none
attr source  dropPkBitError
attr title  "packets dropped/bit error, count"
scalar OrionNetwork.host[8].lo0.lo 	droppedPkBitError:sum(packetBytes) 	0
attr interpolationmode  none
attr source  dropPkBitError
attr title  "packets dropped/bit error, sum(packetBytes)"
statistic OrionNetwork.host[8].wlan[0].queue 	queueingTime:histogram
field count 21
field mean 0.0019301380420476
field stddev 0.0028484730858785
field sum 0.040532898883
field sqrsum 0.00024051006850803
field min 0
field max 0.008661205334
attr interpolationmode  none
attr title  "queueing time, histogram"
bin	-INF	0
bin	-0.004330602667	0
bin	-0.0037531889780667	0
bin	-0.0031757752891333	0
bin	-0.0025983616002	0
bin	-0.0020209479112667	0
bin	-0.0014435342223333	0
bin	-0.0008661205334	0
bin	-0.00028870684446667	13
bin	0.00028870684446667	0
bin	0.0008661205334	0
bin	0.0014435342223333	0
bin	0.0020209479112667	2
bin	0.0025983616002	0
bin	0.0031757752891333	0
bin	0.0037531889780667	1
bin	0.004330602667	3
bin	0.0049080163559333	0
bin	0.0054854300448667	0
bin	0.0060628437338	0
bin	0.0066402574227333	0
bin	0.0072176711116667	0
bin	0.0077950848006	0
bin	0.0083724984895333	2
bin	0.0089499121784667	0
bin	0.0095273258674	0
bin	0.010104739556333	0
bin	0.010682153245267	0
bin	0.0112595669342	0
bin	0.011836980623133	0
bin	0.012414394312067	0
bin	0.012991808001	0
scalar OrionNetwork.host[8].wlan[0].queue 	dropPk:count 	0
attr interpolationmode  none
attr source  dropPkByQueue
attr title  "dropped packets, count"
scalar OrionNetwork.host[8].wlan[0].queue 	dropPk:sum(packetBytes) 	0
attr interpolationmode  none
attr source  dropPkByQueue
attr title  "dropped packets, sum(packetBytes)"
scalar OrionNetwork.host[8].wlan[0].queue 	queueLength:max 	4
attr interpolationmode  sample-hold
attr title  "queue length, max"
scalar OrionNetwork.host[8].wlan[0].queue 	queueLength:timeavg 	0.00081065797766
attr interpolationmode  sample-hold
attr title  "queue length, timeavg"
scalar OrionNetwork.host[8].wlan[0].queue 	rcvdPk:count 	21
attr interpolationmode  none
attr title  "received packets, count"
scalar OrionNetwork.host[8].wlan[0].queue 	rcvdPk:sum(packetBytes) 	6108
attr interpolationmode  none
attr title  "received packets, sum(packetBytes)"
scalar OrionNetwork.host[8].wlan[0].mac 	droppedPkNotForUs:count 	11
attr interpolationmode  none
attr source  dropPkNotForUs
attr title  "packets dropped/not for us, count"
scalar OrionNetwork.host[8].wlan[0].mac 	droppedPkNotForUs:sum(packetBytes) 	5758
attr interpolationmode  none
attr source  dropPkNotForUs
attr title  "packets dropped/not for us, sum(packetBytes)"
scalar OrionNetwork.host[8].wlan[0].mac 	rcvdPkFromHL:count 	21
attr interpolationmode  none
attr source  packetReceivedFromUpper
attr title  "packets received from higher layer, count"
scalar OrionNetwork.host[8].wlan[0].mac 	rcvdPkFromHL:sum(packetBytes) 	6108
attr interpolationmode  none
attr source  packetReceivedFromUpper
attr title  "packets received from higher layer, sum(packetBytes)"
scalar OrionNetwork.host[8].wlan[0].mac 	passedUpPk:count 	43
attr interpolationmode  none
attr source  packetSentToUpper
attr title  "packets passed to higher layer, count"
scalar OrionNetwork.host[8].wlan[0].mac 	passedUpPk:sum(packetBytes) 	2024
attr interpolationmode  none
attr source  packetSentToUpper
attr title  "packets passed to higher layer, sum(packetBytes)"
scalar OrionNetwork.host[8].wlan[0].mac 	rcvdPkFromLL:count 	54
attr interpolationmode  none
attr source  packetReceivedFromLower
attr title  "packets received from lower layer, count"
scalar OrionNetwork.host[8].wlan[0].mac 	rcvdPkFromLL:sum(packetBytes) 	8212
attr interpolationmode  none
attr source  packetReceivedFromLower
attr title  "packets received from lower layer, sum(packetBytes)"
scalar OrionNetwork.host[8].wlan[0].mac 	sentDownPk:count 	21
attr interpolationmode  none
attr source  packetSentToLower
attr title  "packets sent to lower layer, count"
scalar OrionNetwork.host[8].wlan[0].mac 	sentDownPk:sum(packetBytes) 	6318
attr interpolationmode  none
attr source  packetSentToLower
attr title  "packets sent to lower layer, sum(packetBytes)"
scalar OrionNetwork.host[8].udpApp[0] 	"packets sent" 	9
scalar OrionNetwork.host[8].udpApp[0] 	"packets received" 	41
scalar OrionNetwork.host[8].udpApp[0] 	sentPk:count 	15
attr interpolationmode  none
attr source  sentPk
attr title  "packets sent, count"
scalar OrionNetwork.host[8].udpApp[0] 	sentPk:sum(packetBytes) 	280
attr interpolationmode  none
attr source  sentPk
attr title  "packets sent, sum(packetBytes)"
scalar OrionNetwork.host[8].udpApp[0] 	rcvdPk:count 	41
attr interpolationmode  none
attr source  rcvdPk
attr title  "packets received, count"
scalar OrionNetwork.host[8].udpApp[0] 	rcvdPk:sum(packetBytes) 	820
attr interpolationmode  none
attr source  rcvdPk
attr title  "packets received, sum(packetBytes)"
statistic OrionNetwork.host[8].udpApp[0] 	rcvdPkLifetime:stats
field count 41
field mean 0.00042343879726829
field stddev 0.00062205023704174
field sum 0.017360990688
field sqrsum 2.282917691246e-005
field min 0.000232196802
field max 0.003670019674
attr interpolationmode  none
attr source  messageAge(rcvdPk)
attr title  "received packet lifetime, stats"
attr unit  s
scalar OrionNetwork.host[8].udp 	droppedPkBadChecksum:count 	0
attr interpolationmode  none
attr title  "packets dropped (checksum error), count"
scalar OrionNetwork.host[8].udp 	droppedPkWrongPort:count 	0
attr interpolationmode  none
attr title  "packets dropped (wrong port), count"
scalar OrionNetwork.host[8].udp 	passedUpPk:count 	41
attr interpolationmode  none
attr title  "packets passed up, count"
scalar OrionNetwork.host[8].udp 	sentPk:count 	20
attr interpolationmode  none
attr source  sentPk
attr title  "packets sent, count"
scalar OrionNetwork.host[8].udp 	sentPk:sum(packetBytes) 	5680
attr interpolationmode  none
attr source  sentPk
attr title  "packets sent, sum(packetBytes)"
scalar OrionNetwork.host[8].udp 	rcvdPk:count 	41
attr interpolationmode  none
attr source  rcvdPk
attr title  "packets received, count"
scalar OrionNetwork.host[8].udp 	rcvdPk:sum(packetBytes) 	1148
attr interpolationmode  none
attr source  rcvdPk
attr title  "packets received, sum(packetBytes)"
scalar OrionNetwork.host[9].networkLayer.arp 	initiatedARPResolution:count 	0
attr title  "ARP initiated resolutions, count"
scalar OrionNetwork.host[9].networkLayer.arp 	sentReply:count 	0
attr title  "ARP replies sent, count"
scalar OrionNetwork.host[9].networkLayer.arp 	sentReq:count 	0
attr title  "ARP request sent, count"
scalar OrionNetwork.host[9].networkLayer.arp 	failedARPResolution:count 	0
attr title  "ARP failed resolutions, count"
scalar OrionNetwork.host[9].networkLayer.arp 	completedARPResolution:count 	0
attr title  "ARP completed resolutions, count"
scalar OrionNetwork.host[9].lo0.lo 	rcvdPkFromHL:count 	0
attr interpolationmode  none
attr source  packetReceivedFromUpper
attr title  "packets received from higher layer, count"
scalar OrionNetwork.host[9].lo0.lo 	rcvdPkFromHL:sum(packetBytes) 	0
attr interpolationmode  none
attr source  packetReceivedFromUpper
attr title  "packets received from higher layer, sum(packetBytes)"
scalar OrionNetwork.host[9].lo0.lo 	passedUpPk:count 	0
attr interpolationmode  none
attr source  packetSentToUpper
attr title  "packets passed to higher layer, count"
scalar OrionNetwork.host[9].lo0.lo 	passedUpPk:sum(packetBytes) 	0
attr interpolationmode  none
attr source  packetSentToUpper
attr title  "packets passed to higher layer, sum(packetBytes)"
scalar OrionNetwork.host[9].lo0.lo 	droppedPkBitError:count 	0
attr interpolationmode  none
attr source  dropPkBitError
attr title  "packets dropped/bit error, count"
scalar OrionNetwork.host[9].lo0.lo 	droppedPkBitError:sum(packetBytes) 	0
attr interpolationmode  none
attr source  dropPkBitError
attr title  "packets dropped/bit error, sum(packetBytes)"
statistic OrionNetwork.host[9].wlan[0].queue 	queueingTime:histogram
field count 9
field mean 0
field stddev 0
field sum 0
field sqrsum 0
field min 0
field max 0
attr interpolationmode  none
attr title  "queueing time, histogram"
bin	-INF	0
bin	-0.5	0
bin	-0.46666666666667	0
bin	-0.43333333333333	0
bin	-0.4	0
bin	-0.36666666666667	0
bin	-0.33333333333333	0
bin	-0.3	0
bin	-0.26666666666667	0
bin	-0.23333333333333	0
bin	-0.2	0
bin	-0.16666666666667	0
bin	-0.13333333333333	0
bin	-0.1	0
bin	-0.066666666666667	0
bin	-0.033333333333333	0
bin	-6.9388939039072e-018	9
bin	0.033333333333333	0
bin	0.066666666666667	0
bin	0.1	0
bin	0.13333333333333	0
bin	0.16666666666667	0
bin	0.2	0
bin	0.23333333333333	0
bin	0.26666666666667	0
bin	0.3	0
bin	0.33333333333333	0
bin	0.36666666666667	0
bin	0.4	0
bin	0.43333333333333	0
bin	0.46666666666667	0
bin	0.5	0
scalar OrionNetwork.host[9].wlan[0].queue 	dropPk:count 	0
attr interpolationmode  none
attr source  dropPkByQueue
attr title  "dropped packets, count"
scalar OrionNetwork.host[9].wlan[0].queue 	dropPk:sum(packetBytes) 	0
attr interpolationmode  none
attr source  dropPkByQueue
attr title  "dropped packets, sum(packetBytes)"
scalar OrionNetwork.host[9].wlan[0].queue 	queueLength:max 	0
attr interpolationmode  sample-hold
attr title  "queue length, max"
scalar OrionNetwork.host[9].wlan[0].queue 	queueLength:timeavg 	0
attr interpolationmode  sample-hold
attr title  "queue length, timeavg"
scalar OrionNetwork.host[9].wlan[0].queue 	rcvdPk:count 	9
attr interpolationmode  none
attr title  "received packets, count"
scalar OrionNetwork.host[9].wlan[0].queue 	rcvdPk:sum(packetBytes) 	432
attr interpolationmode  none
attr title  "received packets, sum(packetBytes)"
scalar OrionNetwork.host[9].wlan[0].mac 	droppedPkNotForUs:count 	245
attr interpolationmode  none
attr source  dropPkNotForUs
attr title  "packets dropped/not for us, count"
scalar OrionNetwork.host[9].wlan[0].mac 	droppedPkNotForUs:sum(packetBytes) 	80558
attr interpolationmode  none
attr source  dropPkNotForUs
attr title  "packets dropped/not for us, sum(packetBytes)"
scalar OrionNetwork.host[9].wlan[0].mac 	rcvdPkFromHL:count 	9
attr interpolationmode  none
attr source  packetReceivedFromUpper
attr title  "packets received from higher layer, count"
scalar OrionNetwork.host[9].wlan[0].mac 	rcvdPkFromHL:sum(packetBytes) 	432
attr interpolationmode  none
attr source  packetReceivedFromUpper
attr title  "packets received from higher layer, sum(packetBytes)"
scalar OrionNetwork.host[9].wlan[0].mac 	passedUpPk:count 	113
attr interpolationmode  none
attr source  packetSentToUpper
attr title  "packets passed to higher layer, count"
scalar OrionNetwork.host[9].wlan[0].mac 	passedUpPk:sum(packetBytes) 	5304
attr interpolationmode  none
attr source  packetSentToUpper
attr title  "packets passed to higher layer, sum(packetBytes)"
scalar OrionNetwork.host[9].wlan[0].mac 	rcvdPkFromLL:count 	358
attr interpolationmode  none
attr source  packetReceivedFromLower
attr title  "packets received from lower layer, count"
scalar OrionNetwork.host[9].wlan[0].mac 	rcvdPkFromLL:sum(packetBytes) 	86992
attr interpolationmode  none
attr source  packetReceivedFromLower
attr title  "packets received from lower layer, sum(packetBytes)"
scalar OrionNetwork.host[9].wlan[0].mac 	sentDownPk:count 	9
attr interpolationmode  none
attr source  packetSentToLower
attr title  "packets sent to lower layer, count"
scalar OrionNetwork.host[9].wlan[0].mac 	sentDownPk:sum(packetBytes) 	522
attr interpolationmode  none
attr source  packetSentToLower
attr title  "packets sent to lower layer, sum(packetBytes)"
scalar OrionNetwork.host[9].udpApp[0] 	"packets sent" 	9
scalar OrionNetwork.host[9].udpApp[0] 	"packets received" 	107
scalar OrionNetwork.host[9].udpApp[0] 	sentPk:count 	9
attr interpolationmode  none
attr source  sentPk
attr title  "packets sent, count"
scalar OrionNetwork.host[9].udpApp[0] 	sentPk:sum(packetBytes) 	180
attr interpolationmode  none
attr source  sentPk
attr title  "packets sent, sum(packetBytes)"
scalar OrionNetwork.host[9].udpApp[0] 	rcvdPk:count 	107
attr interpolationmode  none
attr source  rcvdPk
attr title  "packets received, count"
scalar OrionNetwork.host[9].udpApp[0] 	rcvdPk:sum(packetBytes) 	2140
attr interpolationmode  none
attr source  rcvdPk
attr title  "packets received, sum(packetBytes)"
statistic OrionNetwork.host[9].udpApp[0] 	rcvdPkLifetime:stats
field count 107
field mean 0.0002325836352243
field stddev 1.3833397221338e-007
field sum 0.024886448969
field sqrsum 5.7881827974805e-006
field min 0.000232188691
field max 0.000232797341
attr interpolationmode  none
attr source  messageAge(rcvdPk)
attr title  "received packet lifetime, stats"
attr unit  s
scalar OrionNetwork.host[9].udp 	droppedPkBadChecksum:count 	0
attr interpolationmode  none
attr title  "packets dropped (checksum error), count"
scalar OrionNetwork.host[9].udp 	droppedPkWrongPort:count 	0
attr interpolationmode  none
attr title  "packets dropped (wrong port), count"
scalar OrionNetwork.host[9].udp 	passedUpPk:count 	107
attr interpolationmode  none
attr title  "packets passed up, count"
scalar OrionNetwork.host[9].udp 	sentPk:count 	9
attr interpolationmode  none
attr source  sentPk
attr title  "packets sent, count"
scalar OrionNetwork.host[9].udp 	sentPk:sum(packetBytes) 	252
attr interpolationmode  none
attr source  sentPk
attr title  "packets sent, sum(packetBytes)"
scalar OrionNetwork.host[9].udp 	rcvdPk:count 	107
attr interpolationmode  none
attr source  rcvdPk
attr title  "packets received, count"
scalar OrionNetwork.host[9].udp 	rcvdPk:sum(packetBytes) 	2996
attr interpolationmode  none
attr source  rcvdPk
attr title  "packets received, sum(packetBytes)"
scalar OrionNetwork.host[10].networkLayer.arp 	initiatedARPResolution:count 	1
attr title  "ARP initiated resolutions, count"
scalar OrionNetwork.host[10].networkLayer.arp 	sentReply:count 	0
attr title  "ARP replies sent, count"
scalar OrionNetwork.host[10].networkLayer.arp 	sentReq:count 	1
attr title  "ARP request sent, count"
scalar OrionNetwork.host[10].networkLayer.arp 	failedARPResolution:count 	0
attr title  "ARP failed resolutions, count"
scalar OrionNetwork.host[10].networkLayer.arp 	completedARPResolution:count 	1
attr title  "ARP completed resolutions, count"
scalar OrionNetwork.host[10].lo0.lo 	rcvdPkFromHL:count 	0
attr interpolationmode  none
attr source  packetReceivedFromUpper
attr title  "packets received from higher layer, count"
scalar OrionNetwork.host[10].lo0.lo 	rcvdPkFromHL:sum(packetBytes) 	0
attr interpolationmode  none
attr source  packetReceivedFromUpper
attr title  "packets received from higher layer, sum(packetBytes)"
scalar OrionNetwork.host[10].lo0.lo 	passedUpPk:count 	0
attr interpolationmode  none
attr source  packetSentToUpper
attr title  "packets passed to higher layer, count"
scalar OrionNetwork.host[10].lo0.lo 	passedUpPk:sum(packetBytes) 	0
attr interpolationmode  none
attr source  packetSentToUpper
attr title  "packets passed to higher layer, sum(packetBytes)"
scalar OrionNetwork.host[10].lo0.lo 	droppedPkBitError:count 	0
attr interpolationmode  none
attr source  dropPkBitError
attr title  "packets dropped/bit error, count"
scalar OrionNetwork.host[10].lo0.lo 	droppedPkBitError:sum(packetBytes) 	0
attr interpolationmode  none
attr source  dropPkBitError
attr title  "packets dropped/bit error, sum(packetBytes)"
statistic OrionNetwork.host[10].wlan[0].queue 	queueingTime:histogram
field count 21
field mean 0.0027844583400952
field stddev 0.0039325781569647
field sum 0.058473625142
field sqrsum 0.00047212079241496
field min 0
field max 0.010041995239
attr interpolationmode  none
attr title  "queueing time, histogram"
bin	-INF	0
bin	-0.0050209976195	0
bin	-0.0043515312702333	0
bin	-0.0036820649209667	0
bin	-0.0030125985717	0
bin	-0.0023431322224333	0
bin	-0.0016736658731667	0
bin	-0.0010041995239	0
bin	-0.00033473317463333	13
bin	0.00033473317463333	0
bin	0.0010041995239	0
bin	0.0016736658731667	0
bin	0.0023431322224333	0
bin	0.0030125985717	2
bin	0.0036820649209667	0
bin	0.0043515312702333	0
bin	0.0050209976195	0
bin	0.0056904639687667	0
bin	0.0063599303180333	2
bin	0.0070293966673	0
bin	0.0076988630165667	0
bin	0.0083683293658333	1
bin	0.0090377957151	1
bin	0.0097072620643667	2
bin	0.010376728413633	0
bin	0.0110461947629	0
bin	0.011715661112167	0
bin	0.012385127461433	0
bin	0.0130545938107	0
bin	0.013724060159967	0
bin	0.014393526509233	0
bin	0.0150629928585	0
scalar OrionNetwork.host[10].wlan[0].queue 	dropPk:count 	0
attr interpolationmode  none
attr source  dropPkByQueue
attr title  "dropped packets, count"
scalar OrionNetwork.host[10].wlan[0].queue 	dropPk:sum(packetBytes) 	0
attr interpolationmode  none
attr source  dropPkByQueue
attr title  "dropped packets, sum(packetBytes)"
scalar OrionNetwork.host[10].wlan[0].queue 	queueLength:max 	6
attr interpolationmode  sample-hold
attr title  "queue length, max"
scalar OrionNetwork.host[10].wlan[0].queue 	queueLength:timeavg 	0.00116947250284
attr interpolationmode  sample-hold
attr title  "queue length, timeavg"
scalar OrionNetwork.host[10].wlan[0].queue 	rcvdPk:count 	21
attr interpolationmode  none
attr title  "received packets, count"
scalar OrionNetwork.host[10].wlan[0].queue 	rcvdPk:sum(packetBytes) 	6108
attr interpolationmode  none
attr title  "received packets, sum(packetBytes)"
scalar OrionNetwork.host[10].wlan[0].mac 	droppedPkNotForUs:count 	219
attr interpolationmode  none
attr source  dropPkNotForUs
attr title  "packets dropped/not for us, count"
scalar OrionNetwork.host[10].wlan[0].mac 	droppedPkNotForUs:sum(packetBytes) 	84182
attr interpolationmode  none
attr source  dropPkNotForUs
attr title  "packets dropped/not for us, sum(packetBytes)"
scalar OrionNetwork.host[10].wlan[0].mac 	rcvdPkFromHL:count 	21
attr interpolationmode  none
attr source  packetReceivedFromUpper
attr title  "packets received from higher layer, count"
scalar OrionNetwork.host[10].wlan[0].mac 	rcvdPkFromHL:sum(packetBytes) 	6108
attr interpolationmode  none
attr source  packetReceivedFromUpper
attr title  "packets received from higher layer, sum(packetBytes)"
scalar OrionNetwork.host[10].wlan[0].mac 	passedUpPk:count 	61
attr interpolationmode  none
attr source  packetSentToUpper
attr title  "packets passed to higher layer, count"
scalar OrionNetwork.host[10].wlan[0].mac 	passedUpPk:sum(packetBytes) 	2808
attr interpolationmode  none
attr source  packetSentToUpper
[...]
attr interpolationmode  none
attr source  dropPkByQueue
attr title  "dropped packets, count"
scalar OrionNetwork.host[22].wlan[0].queue 	dropPk:sum(packetBytes) 	0
attr interpolationmode  none
attr source  dropPkByQueue
attr title  "dropped packets, sum(packetBytes)"
scalar OrionNetwork.host[22].wlan[0].queue 	queueLength:max 	6
attr interpolationmode  sample-hold
attr title  "queue length, max"
scalar OrionNetwork.host[22].wlan[0].queue 	queueLength:timeavg 	0.00121592847368
attr interpolationmode  sample-hold
attr title  "queue length, timeavg"
scalar OrionNetwork.host[22].wlan[0].queue 	rcvdPk:count 	55
attr interpolationmode  none
attr title  "received packets, count"
scalar OrionNetwork.host[22].wlan[0].queue 	rcvdPk:sum(packetBytes) 	17940
attr interpolationmode  none
attr title  "received packets, sum(packetBytes)"
scalar OrionNetwork.host[22].wlan[0].mac 	droppedPkNotForUs:count 	169
attr interpolationmode  none
attr source  dropPkNotForUs
attr title  "packets dropped/not for us, count"
scalar OrionNetwork.host[22].wlan[0].mac 	droppedPkNotForUs:sum(packetBytes) 	65962
attr interpolationmode  none
attr source  dropPkNotForUs
attr title  "packets dropped/not for us, sum(packetBytes)"
scalar OrionNetwork.host[22].wlan[0].mac 	rcvdPkFromHL:count 	55
attr interpolationmode  none
attr source  packetReceivedFromUpper
attr title  "packets received from higher layer, count"
scalar OrionNetwork.host[22].wlan[0].mac 	rcvdPkFromHL:sum(packetBytes) 	17940
attr interpolationmode  none
attr source  packetReceivedFromUpper
attr title  "packets received from higher layer, sum(packetBytes)"
scalar OrionNetwork.host[22].wlan[0].mac 	passedUpPk:count 	111
attr interpolationmode  none
attr source  packetSentToUpper
attr title  "packets passed to higher layer, count"
scalar OrionNetwork.host[22].wlan[0].mac 	passedUpPk:sum(packetBytes) 	15408
attr interpolationmode  none
attr source  packetSentToUpper
attr title  "packets passed to higher layer, sum(packetBytes)"
scalar OrionNetwork.host[22].wlan[0].mac 	rcvdPkFromLL:count 	280
attr interpolationmode  none
attr source  packetReceivedFromLower
attr title  "packets received from lower layer, count"
scalar OrionNetwork.host[22].wlan[0].mac 	rcvdPkFromLL:sum(packetBytes) 	82480
attr interpolationmode  none
attr source  packetReceivedFromLower
attr title  "packets received from lower layer, sum(packetBytes)"
scalar OrionNetwork.host[22].wlan[0].mac 	sentDownPk:count 	55
attr interpolationmode  none
attr source  packetSentToLower
attr title  "packets sent to lower layer, count"
scalar OrionNetwork.host[22].wlan[0].mac 	sentDownPk:sum(packetBytes) 	18490
attr interpolationmode  none
attr source  packetSentToLower
attr title  "packets sent to lower layer, sum(packetBytes)"
scalar OrionNetwork.host[22].udpApp[0] 	"packets sent" 	9
scalar OrionNetwork.host[22].udpApp[0] 	"packets received" 	104
scalar OrionNetwork.host[22].udpApp[0] 	sentPk:count 	25
attr interpolationmode  none
attr source  sentPk
attr title  "packets sent, count"
scalar OrionNetwork.host[22].udpApp[0] 	sentPk:sum(packetBytes) 	480
attr interpolationmode  none
attr source  sentPk
attr title  "packets sent, sum(packetBytes)"
scalar OrionNetwork.host[22].udpApp[0] 	rcvdPk:count 	104
attr interpolationmode  none
attr source  rcvdPk
attr title  "packets received, count"
scalar OrionNetwork.host[22].udpApp[0] 	rcvdPk:sum(packetBytes) 	12300
attr interpolationmode  none
attr source  rcvdPk
attr title  "packets received, sum(packetBytes)"
statistic OrionNetwork.host[22].udpApp[0] 	rcvdPkLifetime:stats
field count 104
field mean 0.0019583524626731
field stddev 0.0049060177165568
field sum 0.203668656118
field sqrsum 0.0028779630273004
field min 0.000232147463
field max 0.021723545359
attr interpolationmode  none
attr source  messageAge(rcvdPk)
attr title  "received packet lifetime, stats"
attr unit  s
scalar OrionNetwork.host[22].udp 	droppedPkBadChecksum:count 	0
attr interpolationmode  none
attr title  "packets dropped (checksum error), count"
scalar OrionNetwork.host[22].udp 	droppedPkWrongPort:count 	0
attr interpolationmode  none
attr title  "packets dropped (wrong port), count"
scalar OrionNetwork.host[22].udp 	passedUpPk:count 	104
attr interpolationmode  none
attr title  "packets passed up, count"
scalar OrionNetwork.host[22].udp 	sentPk:count 	53
attr interpolationmode  none
attr source  sentPk
attr title  "packets sent, count"
scalar OrionNetwork.host[22].udp 	sentPk:sum(packetBytes) 	16824
attr interpolationmode  none
attr source  sentPk
attr title  "packets sent, sum(packetBytes)"
scalar OrionNetwork.host[22].udp 	rcvdPk:count 	104
attr interpolationmode  none
attr source  rcvdPk
attr title  "packets received, count"
scalar OrionNetwork.host[22].udp 	rcvdPk:sum(packetBytes) 	13132
attr interpolationmode  none
attr source  rcvdPk
attr title  "packets received, sum(packetBytes)"
scalar OrionNetwork.host[23].networkLayer.arp 	initiatedARPResolution:count 	1
attr title  "ARP initiated resolutions, count"
scalar OrionNetwork.host[23].networkLayer.arp 	sentReply:count 	1
attr title  "ARP replies sent, count"
scalar OrionNetwork.host[23].networkLayer.arp 	sentReq:count 	1
attr title  "ARP request sent, count"
scalar OrionNetwork.host[23].networkLayer.arp 	failedARPResolution:count 	0
attr title  "ARP failed resolutions, count"
scalar OrionNetwork.host[23].networkLayer.arp 	completedARPResolution:count 	2
attr title  "ARP completed resolutions, count"
scalar OrionNetwork.host[23].lo0.lo 	rcvdPkFromHL:count 	0
attr interpolationmode  none
attr source  packetReceivedFromUpper
attr title  "packets received from higher layer, count"
scalar OrionNetwork.host[23].lo0.lo 	rcvdPkFromHL:sum(packetBytes) 	0
attr interpolationmode  none
attr source  packetReceivedFromUpper
attr title  "packets received from higher layer, sum(packetBytes)"
scalar OrionNetwork.host[23].lo0.lo 	passedUpPk:count 	0
attr interpolationmode  none
attr source  packetSentToUpper
attr title  "packets passed to higher layer, count"
scalar OrionNetwork.host[23].lo0.lo 	passedUpPk:sum(packetBytes) 	0
attr interpolationmode  none
attr source  packetSentToUpper
attr title  "packets passed to higher layer, sum(packetBytes)"
scalar OrionNetwork.host[23].lo0.lo 	droppedPkBitError:count 	0
attr interpolationmode  none
attr source  dropPkBitError
attr title  "packets dropped/bit error, count"
scalar OrionNetwork.host[23].lo0.lo 	droppedPkBitError:sum(packetBytes) 	0
attr interpolationmode  none
attr source  dropPkBitError
attr title  "packets dropped/bit error, sum(packetBytes)"
statistic OrionNetwork.host[23].wlan[0].queue 	queueingTime:histogram
field count 27
field mean 4.2997245925926e-005
field stddev 9.1909877069687e-005
field sum 0.00116092564
field sqrsum 2.6954966832188e-007
field min 0
field max 0.000232185128
attr interpolationmode  none
attr title  "queueing time, histogram"
bin	-INF	0
bin	-0.000116092564	0
bin	-0.00010061355546667	0
bin	-8.5134546933333e-005	0
bin	-6.96555384e-005	0
bin	-5.4176529866667e-005	0
bin	-3.8697521333333e-005	0
bin	-2.32185128e-005	0
bin	-7.7395042666667e-006	22
bin	7.7395042666667e-006	0
bin	2.32185128e-005	0
bin	3.8697521333333e-005	0
bin	5.4176529866667e-005	0
bin	6.96555384e-005	0
bin	8.5134546933333e-005	0
bin	0.00010061355546667	0
bin	0.000116092564	0
bin	0.00013157157253333	0
bin	0.00014705058106667	0
bin	0.0001625295896	0
bin	0.00017800859813333	0
bin	0.00019348760666667	0
bin	0.0002089666152	0
bin	0.00022444562373333	5
bin	0.00023992463226667	0
bin	0.0002554036408	0
bin	0.00027088264933333	0
bin	0.00028636165786667	0
bin	0.0003018406664	0
bin	0.00031731967493333	0
bin	0.00033279868346667	0
bin	0.000348277692	0
scalar OrionNetwork.host[23].wlan[0].queue 	dropPk:count 	0
attr interpolationmode  none
attr source  dropPkByQueue
attr title  "dropped packets, count"
scalar OrionNetwork.host[23].wlan[0].queue 	dropPk:sum(packetBytes) 	0
attr interpolationmode  none
attr source  dropPkByQueue
attr title  "dropped packets, sum(packetBytes)"
scalar OrionNetwork.host[23].wlan[0].queue 	queueLength:max 	1
attr interpolationmode  sample-hold
attr title  "queue length, max"
scalar OrionNetwork.host[23].wlan[0].queue 	queueLength:timeavg 	2.32185128e-005
attr interpolationmode  sample-hold
attr title  "queue length, timeavg"
scalar OrionNetwork.host[23].wlan[0].queue 	rcvdPk:count 	27
attr interpolationmode  none
attr title  "received packets, count"
scalar OrionNetwork.host[23].wlan[0].queue 	rcvdPk:sum(packetBytes) 	6376
attr interpolationmode  none
attr title  "received packets, sum(packetBytes)"
scalar OrionNetwork.host[23].wlan[0].mac 	droppedPkNotForUs:count 	200
attr interpolationmode  none
attr source  dropPkNotForUs
attr title  "packets dropped/not for us, count"
scalar OrionNetwork.host[23].wlan[0].mac 	droppedPkNotForUs:sum(packetBytes) 	62628
attr interpolationmode  none
attr source  dropPkNotForUs
attr title  "packets dropped/not for us, sum(packetBytes)"
scalar OrionNetwork.host[23].wlan[0].mac 	rcvdPkFromHL:count 	27
attr interpolationmode  none
attr source  packetReceivedFromUpper
attr title  "packets received from higher layer, count"
scalar OrionNetwork.host[23].wlan[0].mac 	rcvdPkFromHL:sum(packetBytes) 	6376
attr interpolationmode  none
attr source  packetReceivedFromUpper
attr title  "packets received from higher layer, sum(packetBytes)"
scalar OrionNetwork.host[23].wlan[0].mac 	passedUpPk:count 	102
attr interpolationmode  none
attr source  packetSentToUpper
attr title  "packets passed to higher layer, count"
scalar OrionNetwork.host[23].wlan[0].mac 	passedUpPk:sum(packetBytes) 	9916
attr interpolationmode  none
attr source  packetSentToUpper
attr title  "packets passed to higher layer, sum(packetBytes)"
scalar OrionNetwork.host[23].wlan[0].mac 	rcvdPkFromLL:count 	302
attr interpolationmode  none
attr source  packetReceivedFromLower
attr title  "packets received from lower layer, count"
scalar OrionNetwork.host[23].wlan[0].mac 	rcvdPkFromLL:sum(packetBytes) 	73564
attr interpolationmode  none
attr source  packetReceivedFromLower
attr title  "packets received from lower layer, sum(packetBytes)"
scalar OrionNetwork.host[23].wlan[0].mac 	sentDownPk:count 	27
attr interpolationmode  none
attr source  packetSentToLower
attr title  "packets sent to lower layer, count"
scalar OrionNetwork.host[23].wlan[0].mac 	sentDownPk:sum(packetBytes) 	6646
attr interpolationmode  none
attr source  packetSentToLower
attr title  "packets sent to lower layer, sum(packetBytes)"
scalar OrionNetwork.host[23].udpApp[0] 	"packets sent" 	9
scalar OrionNetwork.host[23].udpApp[0] 	"packets received" 	97
scalar OrionNetwork.host[23].udpApp[0] 	sentPk:count 	14
attr interpolationmode  none
attr source  sentPk
attr title  "packets sent, count"
scalar OrionNetwork.host[23].udpApp[0] 	sentPk:sum(packetBytes) 	280
attr interpolationmode  none
attr source  sentPk
attr title  "packets sent, sum(packetBytes)"
scalar OrionNetwork.host[23].udpApp[0] 	rcvdPk:count 	97
attr interpolationmode  none
attr source  rcvdPk
attr title  "packets received, count"
scalar OrionNetwork.host[23].udpApp[0] 	rcvdPk:sum(packetBytes) 	7060
attr interpolationmode  none
attr source  rcvdPk
attr title  "packets received, sum(packetBytes)"
statistic OrionNetwork.host[23].udpApp[0] 	rcvdPkLifetime:stats
field count 97
field mean 0.00094027228104124
field stddev 0.0029409200203524
field sum 0.091206411261
field sqrsum 0.00091606387470849
field min 0.000232157547
field max 0.01737909374
attr interpolationmode  none
attr source  messageAge(rcvdPk)
attr title  "received packet lifetime, stats"
attr unit  s
scalar OrionNetwork.host[23].udp 	droppedPkBadChecksum:count 	0
attr interpolationmode  none
attr title  "packets dropped (checksum error), count"
scalar OrionNetwork.host[23].udp 	droppedPkWrongPort:count 	0
attr interpolationmode  none
attr title  "packets dropped (wrong port), count"
scalar OrionNetwork.host[23].udp 	passedUpPk:count 	97
attr interpolationmode  none
attr title  "packets passed up, count"
scalar OrionNetwork.host[23].udp 	sentPk:count 	25
attr interpolationmode  none
attr source  sentPk
attr title  "packets sent, count"
scalar OrionNetwork.host[23].udp 	sentPk:sum(packetBytes) 	5820
attr interpolationmode  none
attr source  sentPk
attr title  "packets sent, sum(packetBytes)"
scalar OrionNetwork.host[23].udp 	rcvdPk:count 	97
attr interpolationmode  none
attr source  rcvdPk
attr title  "packets received, count"
scalar OrionNetwork.host[23].udp 	rcvdPk:sum(packetBytes) 	7836
attr interpolationmode  none
attr source  rcvdPk
attr title  "packets received, sum(packetBytes)"
scalar OrionNetwork.host[24].networkLayer.arp 	initiatedARPResolution:count 	0
attr title  "ARP initiated resolutions, count"
scalar OrionNetwork.host[24].networkLayer.arp 	sentReply:count 	0
attr title  "ARP replies sent, count"
scalar OrionNetwork.host[24].networkLayer.arp 	sentReq:count 	0
attr title  "ARP request sent, count"
scalar OrionNetwork.host[24].networkLayer.arp 	failedARPResolution:count 	0
attr title  "ARP failed resolutions, count"
scalar OrionNetwork.host[24].networkLayer.arp 	completedARPResolution:count 	0
attr title  "ARP completed resolutions, count"
scalar OrionNetwork.host[24].lo0.lo 	rcvdPkFromHL:count 	0
attr interpolationmode  none
attr source  packetReceivedFromUpper
attr title  "packets received from higher layer, count"
scalar OrionNetwork.host[24].lo0.lo 	rcvdPkFromHL:sum(packetBytes) 	0
attr interpolationmode  none
attr source  packetReceivedFromUpper
attr title  "packets received from higher layer, sum(packetBytes)"
scalar OrionNetwork.host[24].lo0.lo 	passedUpPk:count 	0
attr interpolationmode  none
attr source  packetSentToUpper
attr title  "packets passed to higher layer, count"
scalar OrionNetwork.host[24].lo0.lo 	passedUpPk:sum(packetBytes) 	0
attr interpolationmode  none
attr source  packetSentToUpper
attr title  "packets passed to higher layer, sum(packetBytes)"
scalar OrionNetwork.host[24].lo0.lo 	droppedPkBitError:count 	0
attr interpolationmode  none
attr source  dropPkBitError
attr title  "packets dropped/bit error, count"
scalar OrionNetwork.host[24].lo0.lo 	droppedPkBitError:sum(packetBytes) 	0
attr interpolationmode  none
attr source  dropPkBitError
attr title  "packets dropped/bit error, sum(packetBytes)"
statistic OrionNetwork.host[24].wlan[0].queue 	queueingTime:histogram
field count 9
field mean 0
field stddev 0
field sum 0
field sqrsum 0
field min 0
field max 0
attr interpolationmode  none
attr title  "queueing time, histogram"
bin	-INF	0
bin	-0.5	0
bin	-0.46666666666667	0
bin	-0.43333333333333	0
bin	-0.4	0
bin	-0.36666666666667	0
bin	-0.33333333333333	0
bin	-0.3	0
bin	-0.26666666666667	0
bin	-0.23333333333333	0
bin	-0.2	0
bin	-0.16666666666667	0
bin	-0.13333333333333	0
bin	-0.1	0
bin	-0.066666666666667	0
bin	-0.033333333333333	0
bin	-6.9388939039072e-018	9
bin	0.033333333333333	0
bin	0.066666666666667	0
bin	0.1	0
bin	0.13333333333333	0
bin	0.16666666666667	0
bin	0.2	0
bin	0.23333333333333	0
bin	0.26666666666667	0
bin	0.3	0
bin	0.33333333333333	0
bin	0.36666666666667	0
bin	0.4	0
bin	0.43333333333333	0
bin	0.46666666666667	0
bin	0.5	0
scalar OrionNetwork.host[24].wlan[0].queue 	dropPk:count 	0
attr interpolationmode  none
attr source  dropPkByQueue
attr title  "dropped packets, count"
scalar OrionNetwork.host[24].wlan[0].queue 	dropPk:sum(packetBytes) 	0
attr interpolationmode  none
attr source  dropPkByQueue
attr title  "dropped packets, sum(packetBytes)"
scalar OrionNetwork.host[24].wlan[0].queue 	queueLength:max 	0
attr interpolationmode  sample-hold
attr title  "queue length, max"
scalar OrionNetwork.host[24].wlan[0].queue 	queueLength:timeavg 	0
attr interpolationmode  sample-hold
attr title  "queue length, timeavg"
scalar OrionNetwork.host[24].wlan[0].queue 	rcvdPk:count 	9
attr interpolationmode  none
attr title  "received packets, count"
scalar OrionNetwork.host[24].wlan[0].queue 	rcvdPk:sum(packetBytes) 	432
attr interpolationmode  none
attr title  "received packets, sum(packetBytes)"
scalar OrionNetwork.host[24].wlan[0].mac 	droppedPkNotForUs:count 	72
attr interpolationmode  none
attr source  dropPkNotForUs
attr title  "packets dropped/not for us, count"
scalar OrionNetwork.host[24].wlan[0].mac 	droppedPkNotForUs:sum(packetBytes) 	14344
attr interpolationmode  none
attr source  dropPkNotForUs
attr title  "packets dropped/not for us, sum(packetBytes)"
scalar OrionNetwork.host[24].wlan[0].mac 	rcvdPkFromHL:count 	9
attr interpolationmode  none
attr source  packetReceivedFromUpper
attr title  "packets received from higher layer, count"
scalar OrionNetwork.host[24].wlan[0].mac 	rcvdPkFromHL:sum(packetBytes) 	432
attr interpolationmode  none
attr source  packetReceivedFromUpper
attr title  "packets received from higher layer, sum(packetBytes)"
scalar OrionNetwork.host[24].wlan[0].mac 	passedUpPk:count 	65
attr interpolationmode  none
attr source  packetSentToUpper
attr title  "packets passed to higher layer, count"
scalar OrionNetwork.host[24].wlan[0].mac 	passedUpPk:sum(packetBytes) 	3080
attr interpolationmode  none
attr source  packetSentToUpper
attr title  "packets passed to higher layer, sum(packetBytes)"
scalar OrionNetwork.host[24].wlan[0].mac 	rcvdPkFromLL:count 	137
attr interpolationmode  none
attr source  packetReceivedFromLower
attr title  "packets received from lower layer, count"
scalar OrionNetwork.host[24].wlan[0].mac 	rcvdPkFromLL:sum(packetBytes) 	18074
attr interpolationmode  none
attr source  packetReceivedFromLower
attr title  "packets received from lower layer, sum(packetBytes)"
scalar OrionNetwork.host[24].wlan[0].mac 	sentDownPk:count 	9
attr interpolationmode  none
attr source  packetSentToLower
attr title  "packets sent to lower layer, count"
scalar OrionNetwork.host[24].wlan[0].mac 	sentDownPk:sum(packetBytes) 	522
attr interpolationmode  none
attr source  packetSentToLower
attr title  "packets sent to lower layer, sum(packetBytes)"
scalar OrionNetwork.host[24].udpApp[0] 	"packets sent" 	9
scalar OrionNetwork.host[24].udpApp[0] 	"packets received" 	63
scalar OrionNetwork.host[24].udpApp[0] 	sentPk:count 	9
attr interpolationmode  none
attr source  sentPk
attr title  "packets sent, count"
scalar OrionNetwork.host[24].udpApp[0] 	sentPk:sum(packetBytes) 	180
attr interpolationmode  none
attr source  sentPk
attr title  "packets sent, sum(packetBytes)"
scalar OrionNetwork.host[24].udpApp[0] 	rcvdPk:count 	63
attr interpolationmode  none
attr source  rcvdPk
attr title  "packets received, count"
scalar OrionNetwork.host[24].udpApp[0] 	rcvdPk:sum(packetBytes) 	1260
attr interpolationmode  none
attr source  rcvdPk
attr title  "packets received, sum(packetBytes)"
statistic OrionNetwork.host[24].udpApp[0] 	rcvdPkLifetime:stats
field count 63
field mean 0.00023252311292063
field stddev 1.0385904125892e-007
field sum 0.014648956114
field sqrsum 3.4062215454405e-006
field min 0.000232324861
field max 0.00023279417
attr interpolationmode  none
attr source  messageAge(rcvdPk)
attr title  "received packet lifetime, stats"
attr unit  s
scalar OrionNetwork.host[24].udp 	droppedPkBadChecksum:count 	0
attr interpolationmode  none
attr title  "packets dropped (checksum error), count"
scalar OrionNetwork.host[24].udp 	droppedPkWrongPort:count 	0
attr interpolationmode  none
attr title  "packets dropped (wrong port), count"
scalar OrionNetwork.host[24].udp 	passedUpPk:count 	63
attr interpolationmode  none
attr title  "packets passed up, count"
scalar OrionNetwork.host[24].udp 	sentPk:count 	9
attr interpolationmode  none
attr source  sentPk
attr title  "packets sent, count"
scalar OrionNetwork.host[24].udp 	sentPk:sum(packetBytes) 	252
attr interpolationmode  none
attr source  sentPk
attr title  "packets sent, sum(packetBytes)"
scalar OrionNetwork.host[24].udp 	rcvdPk:count 	63
attr interpolationmode  none
attr source  rcvdPk
attr title  "packets received, count"
scalar OrionNetwork.host[24].udp 	rcvdPk:sum(packetBytes) 	1764
attr interpolationmode  none
attr source  rcvdPk
attr title  "packets received, sum(packetBytes)"
