version 2
run IPv4ModerateFastMobility-0-20141003-11:51:07-303308
attr configname IPv4ModerateFastMobility
attr datetime 20141003-11:51:07
attr experiment IPv4ModerateFastMobility
attr inifile omnetpp.ini
attr iterationvars ""
attr iterationvars2 $repetition=0
attr measurement ""
attr network OrionNetwork
attr processid 303308
attr repetition 0
attr replication #0
attr resultdir results
attr runnumber 0
attr seedset 0

scalar OrionNetwork 	hackForCreateResultsFolder 	0
scalar OrionNetwork.host[0].networkLayer.arp 	initiatedARPResolution:count 	0
attr title  "ARP initiated resolutions, count"
scalar OrionNetwork.host[0].networkLayer.arp 	sentReply:count 	2
attr title  "ARP replies sent, count"
scalar OrionNetwork.host[0].networkLayer.arp 	sentReq:count 	0
attr title  "ARP request sent, count"
scalar OrionNetwork.host[0].networkLayer.arp 	failedARPResolution:count 	0
attr title  "ARP failed resolutions, count"
scalar OrionNetwork.host[0].networkLayer.arp 	completedARPResolution:count 	2
attr title  "ARP completed resolutions, count"
scalar OrionNetwork.host[0].lo0.lo 	rcvdPkFromHL:count 	0
attr interpolationmode  none
attr source  packetReceivedFromUpper
attr title  "packets received from higher layer, count"
scalar OrionNetwork.host[0].lo0.lo 	rcvdPkFromHL:sum(packetBytes) 	0
attr interpolationmode  none
attr source  packetReceivedFromUpper
attr title  "packets received from higher layer, sum(packetBytes)"
scalar OrionNetwork.host[0].lo0.lo 	passedUpPk:count 	0
attr interpolationmode  none
attr source  packetSentToUpper
attr title  "packets passed to higher layer, count"
scalar OrionNetwork.host[0].lo0.lo 	passedUpPk:sum(packetBytes) 	0
attr interpolationmode  none
attr source  packetSentToUpper
attr title  "packets passed to higher layer, sum(packetBytes)"
scalar OrionNetwork.host[0].lo0.lo 	droppedPkBitError:count 	0
attr interpolationmode  none
attr source  dropPkBitError
attr title  "packets dropped/bit error, count"
scalar OrionNetwork.host[0].lo0.lo 	droppedPkBitError:sum(packetBytes) 	0
attr interpolationmode  none
attr source  dropPkBitError
attr title  "packets dropped/bit error, sum(packetBytes)"
statistic OrionNetwork.host[0].wlan[0].queue 	queueingTime:histogram
field count 13
field mean 0
field stddev 0
field sum 0
field sqrsum 0
field min 0
field max 0
attr interpolationmode  none
attr title  "queueing time, histogram"
bin	-INF	0
bin	-0.5	0
bin	-0.46666666666667	0
bin	-0.43333333333333	0
bin	-0.4	0
bin	-0.36666666666667	0
bin	-0.33333333333333	0
bin	-0.3	0
bin	-0.26666666666667	0
bin	-0.23333333333333	0
bin	-0.2	0
bin	-0.16666666666667	0
bin	-0.13333333333333	0
bin	-0.1	0
bin	-0.066666666666667	0
bin	-0.033333333333333	0
bin	-6.9388939039072e-018	13
bin	0.033333333333333	0
bin	0.066666666666667	0
bin	0.1	0
bin	0.13333333333333	0
bin	0.16666666666667	0
bin	0.2	0
bin	0.23333333333333	0
bin	0.26666666666667	0
bin	0.3	0
bin	0.33333333333333	0
bin	0.36666666666667	0
bin	0.4	0
bin	0.43333333333333	0
bin	0.46666666666667	0
bin	0.5	0
scalar OrionNetwork.host[0].wlan[0].queue 	dropPk:count 	0
attr interpolationmode  none
attr source  dropPkByQueue
attr title  "dropped packets, count"
scalar OrionNetwork.host[0].wlan[0].queue 	dropPk:sum(packetBytes) 	0
attr interpolationmode  none
attr source  dropPkByQueue
attr title  "dropped packets, sum(packetBytes)"
scalar OrionNetwork.host[0].wlan[0].queue 	queueLength:max 	0
attr interpolationmode  sample-hold
attr title  "queue length, max"
scalar OrionNetwork.host[0].wlan[0].queue 	queueLength:timeavg 	0
attr interpolationmode  sample-hold
attr title  "queue length, timeavg"
scalar OrionNetwork.host[0].wlan[0].queue 	rcvdPk:count 	13
attr interpolationmode  none
attr title  "received packets, count"
scalar OrionNetwork.host[0].wlan[0].queue 	rcvdPk:sum(packetBytes) 	584
attr interpolationmode  none
attr title  "received packets, sum(packetBytes)"
scalar OrionNetwork.host[0].wlan[0].mac 	droppedPkNotForUs:count 	4
attr interpolationmode  none
attr source  dropPkNotForUs
attr title  "packets dropped/not for us, count"
scalar OrionNetwork.host[0].wlan[0].mac 	droppedPkNotForUs:sum(packetBytes) 	152
attr interpolationmode  none
attr source  dropPkNotForUs
attr title  "packets dropped/not for us, sum(packetBytes)"
scalar OrionNetwork.host[0].wlan[0].mac 	rcvdPkFromHL:count 	13
attr interpolationmode  none
attr source  packetReceivedFromUpper
attr title  "packets received from higher layer, count"
scalar OrionNetwork.host[0].wlan[0].mac 	rcvdPkFromHL:sum(packetBytes) 	584
attr interpolationmode  none
attr source  packetReceivedFromUpper
attr title  "packets received from higher layer, sum(packetBytes)"
scalar OrionNetwork.host[0].wlan[0].mac 	passedUpPk:count 	52
attr interpolationmode  none
attr source  packetSentToUpper
attr title  "packets passed to higher layer, count"
scalar OrionNetwork.host[0].wlan[0].mac 	passedUpPk:sum(packetBytes) 	2356
attr interpolationmode  none
attr source  packetSentToUpper
attr title  "packets passed to higher layer, sum(packetBytes)"
scalar OrionNetwork.host[0].wlan[0].mac 	rcvdPkFromLL:count 	56
attr interpolationmode  none
attr source  packetReceivedFromLower
attr title  "packets received from lower layer, count"
scalar OrionNetwork.host[0].wlan[0].mac 	rcvdPkFromLL:sum(packetBytes) 	3028
attr interpolationmode  none
attr source  packetReceivedFromLower
attr title  "packets received from lower layer, sum(packetBytes)"
scalar OrionNetwork.host[0].wlan[0].mac 	sentDownPk:count 	13
attr interpolationmode  none
attr source  packetSentToLower
attr title  "packets sent to lower layer, count"
scalar OrionNetwork.host[0].wlan[0].mac 	sentDownPk:sum(packetBytes) 	714
attr interpolationmode  none
attr source  packetSentToLower
attr title  "packets sent to lower layer, sum(packetBytes)"
scalar OrionNetwork.host[0].udpApp[0] 	"packets sent" 	11
scalar OrionNetwork.host[0].udpApp[0] 	"packets received" 	46
scalar OrionNetwork.host[0].udpApp[0] 	sentPk:count 	11
attr interpolationmode  none
attr source  sentPk
attr title  "packets sent, count"
scalar OrionNetwork.host[0].udpApp[0] 	sentPk:sum(packetBytes) 	220
attr interpolationmode  none
attr source  sentPk
attr title  "packets sent, sum(packetBytes)"
scalar OrionNetwork.host[0].udpApp[0] 	rcvdPk:count 	46
attr interpolationmode  none
attr source  rcvdPk
attr title  "packets received, count"
scalar OrionNetwork.host[0].udpApp[0] 	rcvdPk:sum(packetBytes) 	840
attr interpolationmode  none
attr source  rcvdPk
attr title  "packets received, sum(packetBytes)"
statistic OrionNetwork.host[0].udpApp[0] 	rcvdPkLifetime:stats
field count 46
field mean 0.00028725316576087
field stddev 0.00021510123125726
field sum 0.013213645625
field sqrsum 5.877745823001e-006
field min 0.000152604309
field max 0.001301299938
attr interpolationmode  none
attr source  messageAge(rcvdPk)
attr title  "received packet lifetime, stats"
attr unit  s
scalar OrionNetwork.host[0].udp 	droppedPkBadChecksum:count 	0
attr interpolationmode  none
attr title  "packets dropped (checksum error), count"
scalar OrionNetwork.host[0].udp 	droppedPkWrongPort:count 	3
attr interpolationmode  none
attr title  "packets dropped (wrong port), count"
scalar OrionNetwork.host[0].udp 	passedUpPk:count 	46
attr interpolationmode  none
attr title  "packets passed up, count"
scalar OrionNetwork.host[0].udp 	sentPk:count 	11
attr interpolationmode  none
attr source  sentPk
attr title  "packets sent, count"
scalar OrionNetwork.host[0].udp 	sentPk:sum(packetBytes) 	308
attr interpolationmode  none
attr source  sentPk
attr title  "packets sent, sum(packetBytes)"
scalar OrionNetwork.host[0].udp 	rcvdPk:count 	49
attr interpolationmode  none
attr source  rcvdPk
attr title  "packets received, count"
scalar OrionNetwork.host[0].udp 	rcvdPk:sum(packetBytes) 	1292
attr interpolationmode  none
attr source  rcvdPk
attr title  "packets received, sum(packetBytes)"
scalar OrionNetwork.host[1].networkLayer.arp 	initiatedARPResolution:count 	1
attr title  "ARP initiated resolutions, count"
scalar OrionNetwork.host[1].networkLayer.arp 	sentReply:count 	2
attr title  "ARP replies sent, count"
scalar OrionNetwork.host[1].networkLayer.arp 	sentReq:count 	1
attr title  "ARP request sent, count"
scalar OrionNetwork.host[1].networkLayer.arp 	failedARPResolution:count 	0
attr title  "ARP failed resolutions, count"
scalar OrionNetwork.host[1].networkLayer.arp 	completedARPResolution:count 	3
attr title  "ARP completed resolutions, count"
scalar OrionNetwork.host[1].lo0.lo 	rcvdPkFromHL:count 	0
attr interpolationmode  none
attr source  packetReceivedFromUpper
attr title  "packets received from higher layer, count"
scalar OrionNetwork.host[1].lo0.lo 	rcvdPkFromHL:sum(packetBytes) 	0
attr interpolationmode  none
attr source  packetReceivedFromUpper
attr title  "packets received from higher layer, sum(packetBytes)"
scalar OrionNetwork.host[1].lo0.lo 	passedUpPk:count 	0
attr interpolationmode  none
attr source  packetSentToUpper
attr title  "packets passed to higher layer, count"
scalar OrionNetwork.host[1].lo0.lo 	passedUpPk:sum(packetBytes) 	0
attr interpolationmode  none
attr source  packetSentToUpper
attr title  "packets passed to higher layer, sum(packetBytes)"
scalar OrionNetwork.host[1].lo0.lo 	droppedPkBitError:count 	0
attr interpolationmode  none
attr source  dropPkBitError
attr title  "packets dropped/bit error, count"
scalar OrionNetwork.host[1].lo0.lo 	droppedPkBitError:sum(packetBytes) 	0
attr interpolationmode  none
attr source  dropPkBitError
attr title  "packets dropped/bit error, sum(packetBytes)"
statistic OrionNetwork.host[1].wlan[0].queue 	queueingTime:histogram
field count 16
field mean 9.5377693125e-006
field stddev 3.815107725e-005
field sum 0.000152604309
field sqrsum 2.3288075125367e-008
field min 0
field max 0.000152604309
attr interpolationmode  none
attr title  "queueing time, histogram"
bin	-INF	0
bin	-7.63021545e-005	0
bin	-6.61285339e-005	0
bin	-5.59549133e-005	0
bin	-4.57812927e-005	0
bin	-3.56076721e-005	0
bin	-2.54340515e-005	0
bin	-1.52604309e-005	0
bin	-5.0868103e-006	15
bin	5.0868103e-006	0
bin	1.52604309e-005	0
bin	2.54340515e-005	0
bin	3.56076721e-005	0
bin	4.57812927e-005	0
bin	5.59549133e-005	0
bin	6.61285339e-005	0
bin	7.63021545e-005	0
bin	8.64757751e-005	0
bin	9.66493957e-005	0
bin	0.0001068230163	0
bin	0.0001169966369	0
bin	0.0001271702575	0
bin	0.0001373438781	0
bin	0.0001475174987	1
bin	0.0001576911193	0
bin	0.0001678647399	0
bin	0.0001780383605	0
bin	0.0001882119811	0
bin	0.0001983856017	0
bin	0.0002085592223	0
bin	0.0002187328429	0
bin	0.0002289064635	0
scalar OrionNetwork.host[1].wlan[0].queue 	dropPk:count 	0
attr interpolationmode  none
attr source  dropPkByQueue
attr title  "dropped packets, count"
scalar OrionNetwork.host[1].wlan[0].queue 	dropPk:sum(packetBytes) 	0
attr interpolationmode  none
attr source  dropPkByQueue
attr title  "dropped packets, sum(packetBytes)"
scalar OrionNetwork.host[1].wlan[0].queue 	queueLength:max 	1
attr interpolationmode  sample-hold
attr title  "queue length, max"
scalar OrionNetwork.host[1].wlan[0].queue 	queueLength:timeavg 	2.54340515e-006
attr interpolationmode  sample-hold
attr title  "queue length, timeavg"
scalar OrionNetwork.host[1].wlan[0].queue 	rcvdPk:count 	16
attr interpolationmode  none
attr title  "received packets, count"
scalar OrionNetwork.host[1].wlan[0].queue 	rcvdPk:sum(packetBytes) 	648
attr interpolationmode  none
attr title  "received packets, sum(packetBytes)"
scalar OrionNetwork.host[1].wlan[0].mac 	droppedPkNotForUs:count 	3
attr interpolationmode  none
attr source  dropPkNotForUs
attr title  "packets dropped/not for us, count"
scalar OrionNetwork.host[1].wlan[0].mac 	droppedPkNotForUs:sum(packetBytes) 	114
attr interpolationmode  none
attr source  dropPkNotForUs
attr title  "packets dropped/not for us, sum(packetBytes)"
scalar OrionNetwork.host[1].wlan[0].mac 	rcvdPkFromHL:count 	16
attr interpolationmode  none
attr source  packetReceivedFromUpper
attr title  "packets received from higher layer, count"
scalar OrionNetwork.host[1].wlan[0].mac 	rcvdPkFromHL:sum(packetBytes) 	648
attr interpolationmode  none
attr source  packetReceivedFromUpper
attr title  "packets received from higher layer, sum(packetBytes)"
scalar OrionNetwork.host[1].wlan[0].mac 	passedUpPk:count 	55
attr interpolationmode  none
attr source  packetSentToUpper
attr title  "packets passed to higher layer, count"
scalar OrionNetwork.host[1].wlan[0].mac 	passedUpPk:sum(packetBytes) 	2520
attr interpolationmode  none
attr source  packetSentToUpper
attr title  "packets passed to higher layer, sum(packetBytes)"
scalar OrionNetwork.host[1].wlan[0].mac 	rcvdPkFromLL:count 	58
attr interpolationmode  none
attr source  packetReceivedFromLower
attr title  "packets received from lower layer, count"
scalar OrionNetwork.host[1].wlan[0].mac 	rcvdPkFromLL:sum(packetBytes) 	3184
attr interpolationmode  none
attr source  packetReceivedFromLower
attr title  "packets received from lower layer, sum(packetBytes)"
scalar OrionNetwork.host[1].wlan[0].mac 	sentDownPk:count 	16
attr interpolationmode  none
attr source  packetSentToLower
attr title  "packets sent to lower layer, count"
scalar OrionNetwork.host[1].wlan[0].mac 	sentDownPk:sum(packetBytes) 	808
attr interpolationmode  none
attr source  packetSentToLower
attr title  "packets sent to lower layer, sum(packetBytes)"
scalar OrionNetwork.host[1].udpApp[0] 	"packets sent" 	10
scalar OrionNetwork.host[1].udpApp[0] 	"packets received" 	51
scalar OrionNetwork.host[1].udpApp[0] 	sentPk:count 	10
attr interpolationmode  none
attr source  sentPk
attr title  "packets sent, count"
scalar OrionNetwork.host[1].udpApp[0] 	sentPk:sum(packetBytes) 	200
attr interpolationmode  none
attr source  sentPk
attr title  "packets sent, sum(packetBytes)"
scalar OrionNetwork.host[1].udpApp[0] 	rcvdPk:count 	51
attr interpolationmode  none
attr source  rcvdPk
attr title  "packets received, count"
scalar OrionNetwork.host[1].udpApp[0] 	rcvdPk:sum(packetBytes) 	980
attr interpolationmode  none
attr source  rcvdPk
attr title  "packets received, sum(packetBytes)"
statistic OrionNetwork.host[1].udpApp[0] 	rcvdPkLifetime:stats
field count 51
field mean 0.00025949367588235
field stddev 0.00014224457838255
field sum 0.01323417747
field sqrsum 4.4458613629311e-006
field min 0.000232111321
field max 0.001148539519
attr interpolationmode  none
attr source  messageAge(rcvdPk)
attr title  "received packet lifetime, stats"
attr unit  s
scalar OrionNetwork.host[1].udp 	droppedPkBadChecksum:count 	0
attr interpolationmode  none
attr title  "packets dropped (checksum error), count"
scalar OrionNetwork.host[1].udp 	droppedPkWrongPort:count 	0
attr interpolationmode  none
attr title  "packets dropped (wrong port), count"
scalar OrionNetwork.host[1].udp 	passedUpPk:count 	51
attr interpolationmode  none
attr title  "packets passed up, count"
scalar OrionNetwork.host[1].udp 	sentPk:count 	13
attr interpolationmode  none
attr source  sentPk
attr title  "packets sent, count"
scalar OrionNetwork.host[1].udp 	sentPk:sum(packetBytes) 	304
attr interpolationmode  none
attr source  sentPk
attr title  "packets sent, sum(packetBytes)"
scalar OrionNetwork.host[1].udp 	rcvdPk:count 	51
attr interpolationmode  none
attr source  rcvdPk
attr title  "packets received, count"
scalar OrionNetwork.host[1].udp 	rcvdPk:sum(packetBytes) 	1388
attr interpolationmode  none
attr source  rcvdPk
attr title  "packets received, sum(packetBytes)"
scalar OrionNetwork.host[2].networkLayer.arp 	initiatedARPResolution:count 	1
attr title  "ARP initiated resolutions, count"
scalar OrionNetwork.host[2].networkLayer.arp 	sentReply:count 	1
attr title  "ARP replies sent, count"
scalar OrionNetwork.host[2].networkLayer.arp 	sentReq:count 	1
attr title  "ARP request sent, count"
scalar OrionNetwork.host[2].networkLayer.arp 	failedARPResolution:count 	0
attr title  "ARP failed resolutions, count"
scalar OrionNetwork.host[2].networkLayer.arp 	completedARPResolution:count 	2
attr title  "ARP completed resolutions, count"
scalar OrionNetwork.host[2].lo0.lo 	rcvdPkFromHL:count 	0
attr interpolationmode  none
attr source  packetReceivedFromUpper
attr title  "packets received from higher layer, count"
scalar OrionNetwork.host[2].lo0.lo 	rcvdPkFromHL:sum(packetBytes) 	0
attr interpolationmode  none
attr source  packetReceivedFromUpper
attr title  "packets received from higher layer, sum(packetBytes)"
scalar OrionNetwork.host[2].lo0.lo 	passedUpPk:count 	0
attr interpolationmode  none
attr source  packetSentToUpper
attr title  "packets passed to higher layer, count"
scalar OrionNetwork.host[2].lo0.lo 	passedUpPk:sum(packetBytes) 	0
attr interpolationmode  none
attr source  packetSentToUpper
attr title  "packets passed to higher layer, sum(packetBytes)"
scalar OrionNetwork.host[2].lo0.lo 	droppedPkBitError:count 	0
attr interpolationmode  none
attr source  dropPkBitError
attr title  "packets dropped/bit error, count"
scalar OrionNetwork.host[2].lo0.lo 	droppedPkBitError:sum(packetBytes) 	0
attr interpolationmode  none
attr source  dropPkBitError
attr title  "packets dropped/bit error, sum(packetBytes)"
statistic OrionNetwork.host[2].wlan[0].queue 	queueingTime:histogram
field count 14
field mean 0
field stddev 0
field sum 0
field sqrsum 0
field min 0
field max 0
attr interpolationmode  none
attr title  "queueing time, histogram"
bin	-INF	0
bin	-0.5	0
bin	-0.46666666666667	0
bin	-0.43333333333333	0
bin	-0.4	0
bin	-0.36666666666667	0
bin	-0.33333333333333	0
bin	-0.3	0
bin	-0.26666666666667	0
bin	-0.23333333333333	0
bin	-0.2	0
bin	-0.16666666666667	0
bin	-0.13333333333333	0
bin	-0.1	0
bin	-0.066666666666667	0
bin	-0.033333333333333	0
bin	-6.9388939039072e-018	14
bin	0.033333333333333	0
bin	0.066666666666667	0
bin	0.1	0
bin	0.13333333333333	0
bin	0.16666666666667	0
bin	0.2	0
bin	0.23333333333333	0
bin	0.26666666666667	0
bin	0.3	0
bin	0.33333333333333	0
bin	0.36666666666667	0
bin	0.4	0
bin	0.43333333333333	0
bin	0.46666666666667	0
bin	0.5	0
scalar OrionNetwork.host[2].wlan[0].queue 	dropPk:count 	0
attr interpolationmode  none
attr source  dropPkByQueue
attr title  "dropped packets, count"
scalar OrionNetwork.host[2].wlan[0].queue 	dropPk:sum(packetBytes) 	0
attr interpolationmode  none
attr source  dropPkByQueue
attr title  "dropped packets, sum(packetBytes)"
scalar OrionNetwork.host[2].wlan[0].queue 	queueLength:max 	0
attr interpolationmode  sample-hold
attr title  "queue length, max"
scalar OrionNetwork.host[2].wlan[0].queue 	queueLength:timeavg 	0
attr interpolationmode  sample-hold
attr title  "queue length, timeavg"
scalar OrionNetwork.host[2].wlan[0].queue 	rcvdPk:count 	14
attr interpolationmode  none
attr title  "received packets, count"
scalar OrionNetwork.host[2].wlan[0].queue 	rcvdPk:sum(packetBytes) 	612
attr interpolationmode  none
attr title  "received packets, sum(packetBytes)"
scalar OrionNetwork.host[2].wlan[0].mac 	droppedPkNotForUs:count 	9
attr interpolationmode  none
attr source  dropPkNotForUs
attr title  "packets dropped/not for us, count"
scalar OrionNetwork.host[2].wlan[0].mac 	droppedPkNotForUs:sum(packetBytes) 	342
attr interpolationmode  none
attr source  dropPkNotForUs
attr title  "packets dropped/not for us, sum(packetBytes)"
scalar OrionNetwork.host[2].wlan[0].mac 	rcvdPkFromHL:count 	14
attr interpolationmode  none
attr source  packetReceivedFromUpper
attr title  "packets received from higher layer, count"
scalar OrionNetwork.host[2].wlan[0].mac 	rcvdPkFromHL:sum(packetBytes) 	612
attr interpolationmode  none
attr source  packetReceivedFromUpper
attr title  "packets received from higher layer, sum(packetBytes)"
scalar OrionNetwork.host[2].wlan[0].mac 	passedUpPk:count 	49
attr interpolationmode  none
attr source  packetSentToUpper
attr title  "packets passed to higher layer, count"
scalar OrionNetwork.host[2].wlan[0].mac 	passedUpPk:sum(packetBytes) 	2232
attr interpolationmode  none
attr source  packetSentToUpper
attr title  "packets passed to higher layer, sum(packetBytes)"
scalar OrionNetwork.host[2].wlan[0].mac 	rcvdPkFromLL:count 	58
attr interpolationmode  none
attr source  packetReceivedFromLower
attr title  "packets received from lower layer, count"
scalar OrionNetwork.host[2].wlan[0].mac 	rcvdPkFromLL:sum(packetBytes) 	3064
attr interpolationmode  none
attr source  packetReceivedFromLower
attr title  "packets received from lower layer, sum(packetBytes)"
scalar OrionNetwork.host[2].wlan[0].mac 	sentDownPk:count 	14
attr interpolationmode  none
attr source  packetSentToLower
attr title  "packets sent to lower layer, count"
scalar OrionNetwork.host[2].wlan[0].mac 	sentDownPk:sum(packetBytes) 	752
attr interpolationmode  none
attr source  packetSentToLower
attr title  "packets sent to lower layer, sum(packetBytes)"
scalar OrionNetwork.host[2].udpApp[0] 	"packets sent" 	11
scalar OrionNetwork.host[2].udpApp[0] 	"packets received" 	44
scalar OrionNetwork.host[2].udpApp[0] 	sentPk:count 	11
attr interpolationmode  none
attr source  sentPk
attr title  "packets sent, count"
scalar OrionNetwork.host[2].udpApp[0] 	sentPk:sum(packetBytes) 	220
attr interpolationmode  none
attr source  sentPk
attr title  "packets sent, sum(packetBytes)"
scalar OrionNetwork.host[2].udpApp[0] 	rcvdPk:count 	44
attr interpolationmode  none
attr source  rcvdPk
attr title  "packets received, count"
scalar OrionNetwork.host[2].udpApp[0] 	rcvdPk:sum(packetBytes) 	860
attr interpolationmode  none
attr source  rcvdPk
attr title  "packets received, sum(packetBytes)"
statistic OrionNetwork.host[2].udpApp[0] 	rcvdPkLifetime:stats
field count 44
field mean 0.00024643094763636
field stddev 7.2251513886088e-005
field sum 0.010842961696
field sqrsum 2.8965134200598e-006
field min 0.000232061108
field max 0.000690452914
attr interpolationmode  none
attr source  messageAge(rcvdPk)
attr title  "received packet lifetime, stats"
attr unit  s
scalar OrionNetwork.host[2].udp 	droppedPkBadChecksum:count 	0
attr interpolationmode  none
attr title  "packets dropped (checksum error), count"
scalar OrionNetwork.host[2].udp 	droppedPkWrongPort:count 	0
attr interpolationmode  none
attr title  "packets dropped (wrong port), count"
scalar OrionNetwork.host[2].udp 	passedUpPk:count 	44
attr interpolationmode  none
attr title  "packets passed up, count"
scalar OrionNetwork.host[2].udp 	sentPk:count 	12
attr interpolationmode  none
attr source  sentPk
attr title  "packets sent, count"
scalar OrionNetwork.host[2].udp 	sentPk:sum(packetBytes) 	316
attr interpolationmode  none
attr source  sentPk
attr title  "packets sent, sum(packetBytes)"
scalar OrionNetwork.host[2].udp 	rcvdPk:count 	44
attr interpolationmode  none
attr source  rcvdPk
attr title  "packets received, count"
scalar OrionNetwork.host[2].udp 	rcvdPk:sum(packetBytes) 	1212
attr interpolationmode  none
attr source  rcvdPk
attr title  "packets received, sum(packetBytes)"
scalar OrionNetwork.host[3].networkLayer.arp 	initiatedARPResolution:count 	0
attr title  "ARP initiated resolutions, count"
scalar OrionNetwork.host[3].networkLayer.arp 	sentReply:count 	0
attr title  "ARP replies sent, count"
scalar OrionNetwork.host[3].networkLayer.arp 	sentReq:count 	0
attr title  "ARP request sent, count"
scalar OrionNetwork.host[3].networkLayer.arp 	failedARPResolution:count 	0
attr title  "ARP failed resolutions, count"
scalar OrionNetwork.host[3].networkLayer.arp 	completedARPResolution:count 	0
attr title  "ARP completed resolutions, count"
scalar OrionNetwork.host[3].lo0.lo 	rcvdPkFromHL:count 	0
attr interpolationmode  none
attr source  packetReceivedFromUpper
attr title  "packets received from higher layer, count"
scalar OrionNetwork.host[3].lo0.lo 	rcvdPkFromHL:sum(packetBytes) 	0
attr interpolationmode  none
attr source  packetReceivedFromUpper
attr title  "packets received from higher layer, sum(packetBytes)"
scalar OrionNetwork.host[3].lo0.lo 	passedUpPk:count 	0
attr interpolationmode  none
attr source  packetSentToUpper
attr title  "packets passed to higher layer, count"
scalar OrionNetwork.host[3].lo0.lo 	passedUpPk:sum(packetBytes) 	0
attr interpolationmode  none
attr source  packetSentToUpper
attr title  "packets passed to higher layer, sum(packetBytes)"
scalar OrionNetwork.host[3].lo0.lo 	droppedPkBitError:count 	0
attr interpolationmode  none
attr source  dropPkBitError
attr title  "packets dropped/bit error, count"
scalar OrionNetwork.host[3].lo0.lo 	droppedPkBitError:sum(packetBytes) 	0
attr interpolationmode  none
attr source  dropPkBitError
attr title  "packets dropped/bit error, sum(packetBytes)"
statistic OrionNetwork.host[3].wlan[0].queue 	queueingTime:histogram
field count 7
field mean 0
field stddev 0
field sum 0
field sqrsum 0
field min 0
field max 0
attr interpolationmode  none
attr title  "queueing time, histogram"
bin	-INF	0
bin	-0.5	0
bin	-0.46666666666667	0
bin	-0.43333333333333	0
bin	-0.4	0
bin	-0.36666666666667	0
bin	-0.33333333333333	0
bin	-0.3	0
bin	-0.26666666666667	0
bin	-0.23333333333333	0
bin	-0.2	0
bin	-0.16666666666667	0
bin	-0.13333333333333	0
bin	-0.1	0
bin	-0.066666666666667	0
bin	-0.033333333333333	0
bin	-6.9388939039072e-018	7
bin	0.033333333333333	0
bin	0.066666666666667	0
bin	0.1	0
bin	0.13333333333333	0
bin	0.16666666666667	0
bin	0.2	0
bin	0.23333333333333	0
bin	0.26666666666667	0
bin	0.3	0
bin	0.33333333333333	0
bin	0.36666666666667	0
bin	0.4	0
bin	0.43333333333333	0
bin	0.46666666666667	0
bin	0.5	0
scalar OrionNetwork.host[3].wlan[0].queue 	dropPk:count 	0
attr interpolationmode  none
attr source  dropPkByQueue
attr title  "dropped packets, count"
scalar OrionNetwork.host[3].wlan[0].queue 	dropPk:sum(packetBytes) 	0
attr interpolationmode  none
attr source  dropPkByQueue
attr title  "dropped packets, sum(packetBytes)"
scalar OrionNetwork.host[3].wlan[0].queue 	queueLength:max 	0
attr interpolationmode  sample-hold
attr title  "queue length, max"
scalar OrionNetwork.host[3].wlan[0].queue 	queueLength:timeavg 	0
attr interpolationmode  sample-hold
attr title  "queue length, timeavg"
scalar OrionNetwork.host[3].wlan[0].queue 	rcvdPk:count 	7
attr interpolationmode  none
attr title  "received packets, count"
scalar OrionNetwork.host[3].wlan[0].queue 	rcvdPk:sum(packetBytes) 	336
attr interpolationmode  none
attr title  "received packets, sum(packetBytes)"
scalar OrionNetwork.host[3].wlan[0].mac 	droppedPkNotForUs:count 	0
attr interpolationmode  none
attr source  dropPkNotForUs
attr title  "packets dropped/not for us, count"
scalar OrionNetwork.host[3].wlan[0].mac 	droppedPkNotForUs:sum(packetBytes) 	0
attr interpolationmode  none
attr source  dropPkNotForUs
attr title  "packets dropped/not for us, sum(packetBytes)"
scalar OrionNetwork.host[3].wlan[0].mac 	rcvdPkFromHL:count 	7
attr interpolationmode  none
attr source  packetReceivedFromUpper
attr title  "packets received from higher layer, count"
scalar OrionNetwork.host[3].wlan[0].mac 	rcvdPkFromHL:sum(packetBytes) 	336
attr interpolationmode  none
attr source  packetReceivedFromUpper
attr title  "packets received from higher layer, sum(packetBytes)"
scalar OrionNetwork.host[3].wlan[0].mac 	passedUpPk:count 	11
attr interpolationmode  none
attr source  packetSentToUpper
attr title  "packets passed to higher layer, count"
scalar OrionNetwork.host[3].wlan[0].mac 	passedUpPk:sum(packetBytes) 	528
attr interpolationmode  none
attr source  packetSentToUpper
attr title  "packets passed to higher layer, sum(packetBytes)"
scalar OrionNetwork.host[3].wlan[0].mac 	rcvdPkFromLL:count 	11
attr interpolationmode  none
attr source  packetReceivedFromLower
attr title  "packets received from lower layer, count"
scalar OrionNetwork.host[3].wlan[0].mac 	rcvdPkFromLL:sum(packetBytes) 	638
attr interpolationmode  none
attr source  packetReceivedFromLower
attr title  "packets received from lower layer, sum(packetBytes)"
scalar OrionNetwork.host[3].wlan[0].mac 	sentDownPk:count 	7
attr interpolationmode  none
attr source  packetSentToLower
attr title  "packets sent to lower layer, count"
scalar OrionNetwork.host[3].wlan[0].mac 	sentDownPk:sum(packetBytes) 	406
attr interpolationmode  none
attr source  packetSentToLower
attr title  "packets sent to lower layer, sum(packetBytes)"
scalar OrionNetwork.host[3].udpApp[0] 	"packets sent" 	7
scalar OrionNetwork.host[3].udpApp[0] 	"packets received" 	11
scalar OrionNetwork.host[3].udpApp[0] 	sentPk:count 	7
attr interpolationmode  none
attr source  sentPk
attr title  "packets sent, count"
scalar OrionNetwork.host[3].udpApp[0] 	sentPk:sum(packetBytes) 	140
attr interpolationmode  none
attr source  sentPk
attr title  "packets sent, sum(packetBytes)"
scalar OrionNetwork.host[3].udpApp[0] 	rcvdPk:count 	11
attr interpolationmode  none
attr source  rcvdPk
attr title  "packets received, count"
scalar OrionNetwork.host[3].udpApp[0] 	rcvdPk:sum(packetBytes) 	220
attr interpolationmode  none
attr source  rcvdPk
attr title  "packets received, sum(packetBytes)"
statistic OrionNetwork.host[3].udpApp[0] 	rcvdPkLifetime:stats
field count 11
field mean 0.00023248544363636
field stddev 2.304557034473e-007
field sum 0.00255733988
field sqrsum 5.9454482762908e-007
field min 0.000232079105
field max 0.000232721783
attr interpolationmode  none
attr source  messageAge(rcvdPk)
attr title  "received packet lifetime, stats"
attr unit  s
scalar OrionNetwork.host[3].udp 	droppedPkBadChecksum:count 	0
attr interpolationmode  none
attr title  "packets dropped (checksum error), count"
scalar OrionNetwork.host[3].udp 	droppedPkWrongPort:count 	0
attr interpolationmode  none
attr title  "packets dropped (wrong port), count"
scalar OrionNetwork.host[3].udp 	passedUpPk:count 	11
attr interpolationmode  none
attr title  "packets passed up, count"
scalar OrionNetwork.host[3].udp 	sentPk:count 	7
attr interpolationmode  none
attr source  sentPk
attr title  "packets sent, count"
scalar OrionNetwork.host[3].udp 	sentPk:sum(packetBytes) 	196
attr interpolationmode  none
attr source  sentPk
attr title  "packets sent, sum(packetBytes)"
scalar OrionNetwork.host[3].udp 	rcvdPk:count 	11
attr interpolationmode  none
attr source  rcvdPk
attr title  "packets received, count"
scalar OrionNetwork.host[3].udp 	rcvdPk:sum(packetBytes) 	308
attr interpolationmode  none
attr source  rcvdPk
attr title  "packets received, sum(packetBytes)"
scalar OrionNetwork.host[4].networkLayer.arp 	initiatedARPResolution:count 	1
attr title  "ARP initiated resolutions, count"
scalar OrionNetwork.host[4].networkLayer.arp 	sentReply:count 	0
attr title  "ARP replies sent, count"
scalar OrionNetwork.host[4].networkLayer.arp 	sentReq:count 	1
attr title  "ARP request sent, count"
scalar OrionNetwork.host[4].networkLayer.arp 	failedARPResolution:count 	0
attr title  "ARP failed resolutions, count"
scalar OrionNetwork.host[4].networkLayer.arp 	completedARPResolution:count 	2
attr title  "ARP completed resolutions, count"
scalar OrionNetwork.host[4].lo0.lo 	rcvdPkFromHL:count 	0
attr interpolationmode  none
attr source  packetReceivedFromUpper
attr title  "packets received from higher layer, count"
scalar OrionNetwork.host[4].lo0.lo 	rcvdPkFromHL:sum(packetBytes) 	0
attr interpolationmode  none
attr source  packetReceivedFromUpper
attr title  "packets received from higher layer, sum(packetBytes)"
scalar OrionNetwork.host[4].lo0.lo 	passedUpPk:count 	0
attr interpolationmode  none
attr source  packetSentToUpper
attr title  "packets passed to higher layer, count"
scalar OrionNetwork.host[4].lo0.lo 	passedUpPk:sum(packetBytes) 	0
attr interpolationmode  none
attr source  packetSentToUpper
attr title  "packets passed to higher layer, sum(packetBytes)"
scalar OrionNetwork.host[4].lo0.lo 	droppedPkBitError:count 	0
attr interpolationmode  none
attr source  dropPkBitError
attr title  "packets dropped/bit error, count"
scalar OrionNetwork.host[4].lo0.lo 	droppedPkBitError:sum(packetBytes) 	0
attr interpolationmode  none
attr source  dropPkBitError
attr title  "packets dropped/bit error, sum(packetBytes)"
statistic OrionNetwork.host[4].wlan[0].queue 	queueingTime:histogram
field count 6
field mean 3.8666666666667e-005
field stddev 9.4713603387616e-005
field sum 0.000232
field sqrsum 5.3824e-008
field min 0
field max 0.000232
attr interpolationmode  none
attr title  "queueing time, histogram"
bin	-INF	0
bin	-0.000116	0
bin	-0.00010053333333333	0
bin	-8.5066666666667e-005	0
bin	-6.96e-005	0
bin	-5.4133333333333e-005	0
bin	-3.8666666666667e-005	0
bin	-2.32e-005	0
bin	-7.7333333333333e-006	5
bin	7.7333333333333e-006	0
bin	2.32e-005	0
bin	3.8666666666667e-005	0
bin	5.4133333333333e-005	0
bin	6.96e-005	0
bin	8.5066666666667e-005	0
bin	0.00010053333333333	0
bin	0.000116	0
bin	0.00013146666666667	0
bin	0.00014693333333333	0
bin	0.0001624	0
bin	0.00017786666666667	0
bin	0.00019333333333333	0
bin	0.0002088	0
bin	0.00022426666666667	1
bin	0.00023973333333333	0
bin	0.0002552	0
bin	0.00027066666666667	0
bin	0.00028613333333333	0
bin	0.0003016	0
bin	0.00031706666666667	0
bin	0.00033253333333333	0
bin	0.000348	0
scalar OrionNetwork.host[4].wlan[0].queue 	dropPk:count 	0
attr interpolationmode  none
attr source  dropPkByQueue
attr title  "dropped packets, count"
scalar OrionNetwork.host[4].wlan[0].queue 	dropPk:sum(packetBytes) 	0
attr interpolationmode  none
attr source  dropPkByQueue
attr title  "dropped packets, sum(packetBytes)"
scalar OrionNetwork.host[4].wlan[0].queue 	queueLength:max 	1
attr interpolationmode  sample-hold
attr title  "queue length, max"
scalar OrionNetwork.host[4].wlan[0].queue 	queueLength:timeavg 	3.8666666666667e-006
attr interpolationmode  sample-hold
attr title  "queue length, timeavg"
scalar OrionNetwork.host[4].wlan[0].queue 	rcvdPk:count 	6
attr interpolationmode  none
attr title  "received packets, count"
scalar OrionNetwork.host[4].wlan[0].queue 	rcvdPk:sum(packetBytes) 	248
attr interpolationmode  none
attr title  "received packets, sum(packetBytes)"
scalar OrionNetwork.host[4].wlan[0].mac 	droppedPkNotForUs:count 	4
attr interpolationmode  none
attr source  dropPkNotForUs
attr title  "packets dropped/not for us, count"
scalar OrionNetwork.host[4].wlan[0].mac 	droppedPkNotForUs:sum(packetBytes) 	152
attr interpolationmode  none
attr source  dropPkNotForUs
attr title  "packets dropped/not for us, sum(packetBytes)"
scalar OrionNetwork.host[4].wlan[0].mac 	rcvdPkFromHL:count 	6
attr interpolationmode  none
attr source  packetReceivedFromUpper
attr title  "packets received from higher layer, count"
scalar OrionNetwork.host[4].wlan[0].mac 	rcvdPkFromHL:sum(packetBytes) 	248
attr interpolationmode  none
attr source  packetReceivedFromUpper
attr title  "packets received from higher layer, sum(packetBytes)"
scalar OrionNetwork.host[4].wlan[0].mac 	passedUpPk:count 	13
attr interpolationmode  none
attr source  packetSentToUpper
attr title  "packets passed to higher layer, count"
scalar OrionNetwork.host[4].wlan[0].mac 	passedUpPk:sum(packetBytes) 	564
attr interpolationmode  none
attr source  packetSentToUpper
attr title  "packets passed to higher layer, sum(packetBytes)"
scalar OrionNetwork.host[4].wlan[0].mac 	rcvdPkFromLL:count 	17
attr interpolationmode  none
attr source  packetReceivedFromLower
attr title  "packets received from lower layer, count"
scalar OrionNetwork.host[4].wlan[0].mac 	rcvdPkFromLL:sum(packetBytes) 	846
attr interpolationmode  none
attr source  packetReceivedFromLower
attr title  "packets received from lower layer, sum(packetBytes)"
scalar OrionNetwork.host[4].wlan[0].mac 	sentDownPk:count 	6
attr interpolationmode  none
attr source  packetSentToLower
attr title  "packets sent to lower layer, count"
scalar OrionNetwork.host[4].wlan[0].mac 	sentDownPk:sum(packetBytes) 	308
attr interpolationmode  none
attr source  packetSentToLower
attr title  "packets sent to lower layer, sum(packetBytes)"
scalar OrionNetwork.host[4].udpApp[0] 	"packets sent" 	4
scalar OrionNetwork.host[4].udpApp[0] 	"packets received" 	10
scalar OrionNetwork.host[4].udpApp[0] 	sentPk:count 	4
attr interpolationmode  none
attr source  sentPk
attr title  "packets sent, count"
scalar OrionNetwork.host[4].udpApp[0] 	sentPk:sum(packetBytes) 	80
attr interpolationmode  none
attr source  sentPk
attr title  "packets sent, sum(packetBytes)"
scalar OrionNetwork.host[4].udpApp[0] 	rcvdPk:count 	10
attr interpolationmode  none
attr source  rcvdPk
attr title  "packets received, count"
scalar OrionNetwork.host[4].udpApp[0] 	rcvdPk:sum(packetBytes) 	200
attr interpolationmode  none
attr source  rcvdPk
attr title  "packets received, sum(packetBytes)"
statistic OrionNetwork.host[4].udpApp[0] 	rcvdPkLifetime:stats
field count 10
field mean 0.0002325366512
field stddev 2.256047460328e-007
field sum 0.002325366512
field sqrsum 5.4073339959062e-007
field min 0.000232137258
field max 0.000232817638
attr interpolationmode  none
attr source  messageAge(rcvdPk)
attr title  "received packet lifetime, stats"
attr unit  s
scalar OrionNetwork.host[4].udp 	droppedPkBadChecksum:count 	0
attr interpolationmode  none
attr title  "packets dropped (checksum error), count"
scalar OrionNetwork.host[4].udp 	droppedPkWrongPort:count 	0
attr interpolationmode  none
attr title  "packets dropped (wrong port), count"
scalar OrionNetwork.host[4].udp 	passedUpPk:count 	10
attr interpolationmode  none
attr title  "packets passed up, count"
scalar OrionNetwork.host[4].udp 	sentPk:count 	5
attr interpolationmode  none
attr source  sentPk
attr title  "packets sent, count"
scalar OrionNetwork.host[4].udp 	sentPk:sum(packetBytes) 	120
attr interpolationmode  none
attr source  sentPk
attr title  "packets sent, sum(packetBytes)"
scalar OrionNetwork.host[4].udp 	rcvdPk:count 	10
attr interpolationmode  none
attr source  rcvdPk
attr title  "packets received, count"
scalar OrionNetwork.host[4].udp 	rcvdPk:sum(packetBytes) 	280
attr interpolationmode  none
attr source  rcvdPk
attr title  "packets received, sum(packetBytes)"
scalar OrionNetwork.host[5].networkLayer.arp 	initiatedARPResolution:count 	0
attr title  "ARP initiated resolutions, count"
scalar OrionNetwork.host[5].networkLayer.arp 	sentReply:count 	0
attr title  "ARP replies sent, count"
scalar OrionNetwork.host[5].networkLayer.arp 	sentReq:count 	0
attr title  "ARP request sent, count"
scalar OrionNetwork.host[5].networkLayer.arp 	failedARPResolution:count 	0
attr title  "ARP failed resolutions, count"
scalar OrionNetwork.host[5].networkLayer.arp 	completedARPResolution:count 	0
attr title  "ARP completed resolutions, count"
scalar OrionNetwork.host[5].lo0.lo 	rcvdPkFromHL:count 	0
attr interpolationmode  none
attr source  packetReceivedFromUpper
attr title  "packets received from higher layer, count"
scalar OrionNetwork.host[5].lo0.lo 	rcvdPkFromHL:sum(packetBytes) 	0
attr interpolationmode  none
attr source  packetReceivedFromUpper
attr title  "packets received from higher layer, sum(packetBytes)"
scalar OrionNetwork.host[5].lo0.lo 	passedUpPk:count 	0
attr interpolationmode  none
attr source  packetSentToUpper
attr title  "packets passed to higher layer, count"
scalar OrionNetwork.host[5].lo0.lo 	passedUpPk:sum(packetBytes) 	0
attr interpolationmode  none
attr source  packetSentToUpper
attr title  "packets passed to higher layer, sum(packetBytes)"
scalar OrionNetwork.host[5].lo0.lo 	droppedPkBitError:count 	0
attr interpolationmode  none
attr source  dropPkBitError
attr title  "packets dropped/bit error, count"
scalar OrionNetwork.host[5].lo0.lo 	droppedPkBitError:sum(packetBytes) 	0
attr interpolationmode  none
attr source  dropPkBitError
attr title  "packets dropped/bit error, sum(packetBytes)"
statistic OrionNetwork.host[5].wlan[0].queue 	queueingTime:histogram
field count 4
field mean 0
field stddev 0
field sum 0
field sqrsum 0
field min 0
field max 0
attr interpolationmode  none
attr title  "queueing time, histogram"
bin	-INF	0
bin	-0.5	0
bin	-0.46666666666667	0
bin	-0.43333333333333	0
bin	-0.4	0
bin	-0.36666666666667	0
bin	-0.33333333333333	0
bin	-0.3	0
bin	-0.26666666666667	0
bin	-0.23333333333333	0
bin	-0.2	0
bin	-0.16666666666667	0
bin	-0.13333333333333	0
bin	-0.1	0
bin	-0.066666666666667	0
bin	-0.033333333333333	0
bin	-6.9388939039072e-018	4
bin	0.033333333333333	0
bin	0.066666666666667	0
bin	0.1	0
bin	0.13333333333333	0
bin	0.16666666666667	0
bin	0.2	0
bin	0.23333333333333	0
bin	0.26666666666667	0
bin	0.3	0
bin	0.33333333333333	0
bin	0.36666666666667	0
bin	0.4	0
bin	0.43333333333333	0
bin	0.46666666666667	0
bin	0.5	0
scalar OrionNetwork.host[5].wlan[0].queue 	dropPk:count 	0
attr interpolationmode  none
attr source  dropPkByQueue
attr title  "dropped packets, count"
scalar OrionNetwork.host[5].wlan[0].queue 	dropPk:sum(packetBytes) 	0
attr interpolationmode  none
attr source  dropPkByQueue
attr title  "dropped packets, sum(packetBytes)"
scalar OrionNetwork.host[5].wlan[0].queue 	queueLength:max 	0
attr interpolationmode  sample-hold
attr title  "queue length, max"
scalar OrionNetwork.host[5].wlan[0].queue 	queueLength:timeavg 	0
attr interpolationmode  sample-hold
attr title  "queue length, timeavg"
scalar OrionNetwork.host[5].wlan[0].queue 	rcvdPk:count 	4
attr interpolationmode  none
attr title  "received packets, count"
scalar OrionNetwork.host[5].wlan[0].queue 	rcvdPk:sum(packetBytes) 	192
attr interpolationmode  none
attr title  "received packets, sum(packetBytes)"
scalar OrionNetwork.host[5].wlan[0].mac 	droppedPkNotForUs:count 	4
attr interpolationmode  none
attr source  dropPkNotForUs
attr title  "packets dropped/not for us, count"
scalar OrionNetwork.host[5].wlan[0].mac 	droppedPkNotForUs:sum(packetBytes) 	152
attr interpolationmode  none
attr source  dropPkNotForUs
attr title  "packets dropped/not for us, sum(packetBytes)"
scalar OrionNetwork.host[5].wlan[0].mac 	rcvdPkFromHL:count 	4
attr interpolationmode  none
attr source  packetReceivedFromUpper
attr title  "packets received from higher layer, count"
scalar OrionNetwork.host[5].wlan[0].mac 	rcvdPkFromHL:sum(packetBytes) 	192
attr interpolationmode  none
attr source  packetReceivedFromUpper
attr title  "packets received from higher layer, sum(packetBytes)"
scalar OrionNetwork.host[5].wlan[0].mac 	passedUpPk:count 	9
attr interpolationmode  none
attr source  packetSentToUpper
attr title  "packets passed to higher layer, count"
scalar OrionNetwork.host[5].wlan[0].mac 	passedUpPk:sum(packetBytes) 	392
attr interpolationmode  none
attr source  packetSentToUpper
attr title  "packets passed to higher layer, sum(packetBytes)"
scalar OrionNetwork.host[5].wlan[0].mac 	rcvdPkFromLL:count 	13
attr interpolationmode  none
attr source  packetReceivedFromLower
attr title  "packets received from lower layer, count"
scalar OrionNetwork.host[5].wlan[0].mac 	rcvdPkFromLL:sum(packetBytes) 	634
attr interpolationmode  none
attr source  packetReceivedFromLower
attr title  "packets received from lower layer, sum(packetBytes)"
scalar OrionNetwork.host[5].wlan[0].mac 	sentDownPk:count 	4
attr interpolationmode  none
attr source  packetSentToLower
attr title  "packets sent to lower layer, count"
scalar OrionNetwork.host[5].wlan[0].mac 	sentDownPk:sum(packetBytes) 	232
attr interpolationmode  none
attr source  packetSentToLower
attr title  "packets sent to lower layer, sum(packetBytes)"
scalar OrionNetwork.host[5].udpApp[0] 	"packets sent" 	4
scalar OrionNetwork.host[5].udpApp[0] 	"packets received" 	7
scalar OrionNetwork.host[5].udpApp[0] 	sentPk:count 	4
attr interpolationmode  none
attr source  sentPk
attr title  "packets sent, count"
scalar OrionNetwork.host[5].udpApp[0] 	sentPk:sum(packetBytes) 	80
attr interpolationmode  none
attr source  sentPk
attr title  "packets sent, sum(packetBytes)"
scalar OrionNetwork.host[5].udpApp[0] 	rcvdPk:count 	7
attr interpolationmode  none
attr source  rcvdPk
attr title  "packets received, count"
scalar OrionNetwork.host[5].udpApp[0] 	rcvdPk:sum(packetBytes) 	140
attr interpolationmode  none
attr source  rcvdPk
attr title  "packets received, sum(packetBytes)"
statistic OrionNetwork.host[5].udpApp[0] 	rcvdPkLifetime:stats
field count 7
field mean 0.00023247909642857
field stddev 2.3675522799414e-007
field sum 0.001627353675
field sqrsum 3.7832604825194e-007
field min 0.000232137258
field max 0.000232786788
attr interpolationmode  none
attr source  messageAge(rcvdPk)
attr title  "received packet lifetime, stats"
attr unit  s
scalar OrionNetwork.host[5].udp 	droppedPkBadChecksum:count 	0
attr interpolationmode  none
attr title  "packets dropped (checksum error), count"
scalar OrionNetwork.host[5].udp 	droppedPkWrongPort:count 	0
attr interpolationmode  none
attr title  "packets dropped (wrong port), count"
scalar OrionNetwork.host[5].udp 	passedUpPk:count 	7
attr interpolationmode  none
attr title  "packets passed up, count"
scalar OrionNetwork.host[5].udp 	sentPk:count 	4
attr interpolationmode  none
attr source  sentPk
attr title  "packets sent, count"
scalar OrionNetwork.host[5].udp 	sentPk:sum(packetBytes) 	112
attr interpolationmode  none
attr source  sentPk
attr title  "packets sent, sum(packetBytes)"
scalar OrionNetwork.host[5].udp 	rcvdPk:count 	7
attr interpolationmode  none
attr source  rcvdPk
attr title  "packets received, count"
scalar OrionNetwork.host[5].udp 	rcvdPk:sum(packetBytes) 	196
attr interpolationmode  none
attr source  rcvdPk
attr title  "packets received, sum(packetBytes)"
scalar OrionNetwork.host[6].networkLayer.arp 	initiatedARPResolution:count 	1
attr title  "ARP initiated resolutions, count"
scalar OrionNetwork.host[6].networkLayer.arp 	sentReply:count 	0
attr title  "ARP replies sent, count"
scalar OrionNetwork.host[6].networkLayer.arp 	sentReq:count 	1
attr title  "ARP request sent, count"
scalar OrionNetwork.host[6].networkLayer.arp 	failedARPResolution:count 	0
attr title  "ARP failed resolutions, count"
scalar OrionNetwork.host[6].networkLayer.arp 	completedARPResolution:count 	2
attr title  "ARP completed resolutions, count"
scalar OrionNetwork.host[6].lo0.lo 	rcvdPkFromHL:count 	0
attr interpolationmode  none
attr source  packetReceivedFromUpper
attr title  "packets received from higher layer, count"
scalar OrionNetwork.host[6].lo0.lo 	rcvdPkFromHL:sum(packetBytes) 	0
attr interpolationmode  none
attr source  packetReceivedFromUpper
attr title  "packets received from higher layer, sum(packetBytes)"
scalar OrionNetwork.host[6].lo0.lo 	passedUpPk:count 	0
attr interpolationmode  none
attr source  packetSentToUpper
attr title  "packets passed to higher layer, count"
scalar OrionNetwork.host[6].lo0.lo 	passedUpPk:sum(packetBytes) 	0
attr interpolationmode  none
attr source  packetSentToUpper
attr title  "packets passed to higher layer, sum(packetBytes)"
scalar OrionNetwork.host[6].lo0.lo 	droppedPkBitError:count 	0
attr interpolationmode  none
attr source  dropPkBitError
attr title  "packets dropped/bit error, count"
scalar OrionNetwork.host[6].lo0.lo 	droppedPkBitError:sum(packetBytes) 	0
attr interpolationmode  none
attr source  dropPkBitError
attr title  "packets dropped/bit error, sum(packetBytes)"
statistic OrionNetwork.host[6].wlan[0].queue 	queueingTime:histogram
field count 7
field mean 3.3142857142857e-005
field stddev 8.7687757738141e-005
field sum 0.000232
field sqrsum 5.3824e-008
field min 0
field max 0.000232
attr interpolationmode  none
attr title  "queueing time, histogram"
bin	-INF	0
bin	-0.000116	0
bin	-0.00010053333333333	0
bin	-8.5066666666667e-005	0
bin	-6.96e-005	0
bin	-5.4133333333333e-005	0
bin	-3.8666666666667e-005	0
bin	-2.32e-005	0
bin	-7.7333333333333e-006	6
bin	7.7333333333333e-006	0
bin	2.32e-005	0
bin	3.8666666666667e-005	0
bin	5.4133333333333e-005	0
bin	6.96e-005	0
bin	8.5066666666667e-005	0
bin	0.00010053333333333	0
bin	0.000116	0
bin	0.00013146666666667	0
bin	0.00014693333333333	0
bin	0.0001624	0
bin	0.00017786666666667	0
bin	0.00019333333333333	0
bin	0.0002088	0
bin	0.00022426666666667	1
bin	0.00023973333333333	0
bin	0.0002552	0
bin	0.00027066666666667	0
bin	0.00028613333333333	0
bin	0.0003016	0
bin	0.00031706666666667	0
bin	0.00033253333333333	0
bin	0.000348	0
scalar OrionNetwork.host[6].wlan[0].queue 	dropPk:count 	0
attr interpolationmode  none
attr source  dropPkByQueue
attr title  "dropped packets, count"
scalar OrionNetwork.host[6].wlan[0].queue 	dropPk:sum(packetBytes) 	0
attr interpolationmode  none
attr source  dropPkByQueue
attr title  "dropped packets, sum(packetBytes)"
scalar OrionNetwork.host[6].wlan[0].queue 	queueLength:max 	1
attr interpolationmode  sample-hold
attr title  "queue length, max"
scalar OrionNetwork.host[6].wlan[0].queue 	queueLength:timeavg 	3.8666666666667e-006
attr interpolationmode  sample-hold
attr title  "queue length, timeavg"
scalar OrionNetwork.host[6].wlan[0].queue 	rcvdPk:count 	7
attr interpolationmode  none
attr title  "received packets, count"
scalar OrionNetwork.host[6].wlan[0].queue 	rcvdPk:sum(packetBytes) 	296
attr interpolationmode  none
attr title  "received packets, sum(packetBytes)"
scalar OrionNetwork.host[6].wlan[0].mac 	droppedPkNotForUs:count 	1
attr interpolationmode  none
attr source  dropPkNotForUs
attr title  "packets dropped/not for us, count"
scalar OrionNetwork.host[6].wlan[0].mac 	droppedPkNotForUs:sum(packetBytes) 	38
attr interpolationmode  none
attr source  dropPkNotForUs
attr title  "packets dropped/not for us, sum(packetBytes)"
scalar OrionNetwork.host[6].wlan[0].mac 	rcvdPkFromHL:count 	7
attr interpolationmode  none
attr source  packetReceivedFromUpper
attr title  "packets received from higher layer, count"
scalar OrionNetwork.host[6].wlan[0].mac 	rcvdPkFromHL:sum(packetBytes) 	296
attr interpolationmode  none
attr source  packetReceivedFromUpper
attr title  "packets received from higher layer, sum(packetBytes)"
scalar OrionNetwork.host[6].wlan[0].mac 	passedUpPk:count 	9
attr interpolationmode  none
attr source  packetSentToUpper
attr title  "packets passed to higher layer, count"
scalar OrionNetwork.host[6].wlan[0].mac 	passedUpPk:sum(packetBytes) 	392
attr interpolationmode  none
attr source  packetSentToUpper
attr title  "packets passed to higher layer, sum(packetBytes)"
scalar OrionNetwork.host[6].wlan[0].mac 	rcvdPkFromLL:count 	10
attr interpolationmode  none
attr source  packetReceivedFromLower
attr title  "packets received from lower layer, count"
scalar OrionNetwork.host[6].wlan[0].mac 	rcvdPkFromLL:sum(packetBytes) 	520
attr interpolationmode  none
attr source  packetReceivedFromLower
attr title  "packets received from lower layer, sum(packetBytes)"
scalar OrionNetwork.host[6].wlan[0].mac 	sentDownPk:count 	7
attr interpolationmode  none
attr source  packetSentToLower
attr title  "packets sent to lower layer, count"
scalar OrionNetwork.host[6].wlan[0].mac 	sentDownPk:sum(packetBytes) 	366
attr interpolationmode  none
attr source  packetSentToLower
attr title  "packets sent to lower layer, sum(packetBytes)"
scalar OrionNetwork.host[6].udpApp[0] 	"packets sent" 	5
scalar OrionNetwork.host[6].udpApp[0] 	"packets received" 	7
scalar OrionNetwork.host[6].udpApp[0] 	sentPk:count 	5
attr interpolationmode  none
attr source  sentPk
attr title  "packets sent, count"
scalar OrionNetwork.host[6].udpApp[0] 	sentPk:sum(packetBytes) 	100
attr interpolationmode  none
attr source  sentPk
attr title  "packets sent, sum(packetBytes)"
scalar OrionNetwork.host[6].udpApp[0] 	rcvdPk:count 	7
attr interpolationmode  none
attr source  rcvdPk
attr title  "packets received, count"
scalar OrionNetwork.host[6].udpApp[0] 	rcvdPk:sum(packetBytes) 	140
attr interpolationmode  none
attr source  rcvdPk
attr title  "packets received, sum(packetBytes)"
statistic OrionNetwork.host[6].udpApp[0] 	rcvdPkLifetime:stats
field count 7
field mean 0.00023256208285714
field stddev 2.4453236367482e-007
field sum 0.00162793458
field sqrsum 3.7859621545643e-007
field min 0.000232102262
field max 0.000232798248
attr interpolationmode  none
attr source  messageAge(rcvdPk)
attr title  "received packet lifetime, stats"
attr unit  s
scalar OrionNetwork.host[6].udp 	droppedPkBadChecksum:count 	0
attr interpolationmode  none
attr title  "packets dropped (checksum error), count"
scalar OrionNetwork.host[6].udp 	droppedPkWrongPort:count 	0
attr interpolationmode  none
attr title  "packets dropped (wrong port), count"
scalar OrionNetwork.host[6].udp 	passedUpPk:count 	7
attr interpolationmode  none
attr title  "packets passed up, count"
scalar OrionNetwork.host[6].udp 	sentPk:count 	6
attr interpolationmode  none
attr source  sentPk
attr title  "packets sent, count"
scalar OrionNetwork.host[6].udp 	sentPk:sum(packetBytes) 	148
attr interpolationmode  none
attr source  sentPk
attr title  "packets sent, sum(packetBytes)"
scalar OrionNetwork.host[6].udp 	rcvdPk:count 	7
attr interpolationmode  none
attr source  rcvdPk
attr title  "packets received, count"
scalar OrionNetwork.host[6].udp 	rcvdPk:sum(packetBytes) 	196
attr interpolationmode  none
attr source  rcvdPk
attr title  "packets received, sum(packetBytes)"
scalar OrionNetwork.host[7].networkLayer.arp 	initiatedARPResolution:count 	0
attr title  "ARP initiated resolutions, count"
scalar OrionNetwork.host[7].networkLayer.arp 	sentReply:count 	0
attr title  "ARP replies sent, count"
scalar OrionNetwork.host[7].networkLayer.arp 	sentReq:count 	0
attr title  "ARP request sent, count"
scalar OrionNetwork.host[7].networkLayer.arp 	failedARPResolution:count 	0
attr title  "ARP failed resolutions, count"
scalar OrionNetwork.host[7].networkLayer.arp 	completedARPResolution:count 	0
attr title  "ARP completed resolutions, count"
scalar OrionNetwork.host[7].lo0.lo 	rcvdPkFromHL:count 	0
attr interpolationmode  none
attr source  packetReceivedFromUpper
attr title  "packets received from higher layer, count"
scalar OrionNetwork.host[7].lo0.lo 	rcvdPkFromHL:sum(packetBytes) 	0
attr interpolationmode  none
attr source  packetReceivedFromUpper
attr title  "packets received from higher layer, sum(packetBytes)"
scalar OrionNetwork.host[7].lo0.lo 	passedUpPk:count 	0
attr interpolationmode  none
attr source  packetSentToUpper
attr title  "packets passed to higher layer, count"
scalar OrionNetwork.host[7].lo0.lo 	passedUpPk:sum(packetBytes) 	0
attr interpolationmode  none
attr source  packetSentToUpper
attr title  "packets passed to higher layer, sum(packetBytes)"
scalar OrionNetwork.host[7].lo0.lo 	droppedPkBitError:count 	0
attr interpolationmode  none
attr source  dropPkBitError
attr title  "packets dropped/bit error, count"
scalar OrionNetwork.host[7].lo0.lo 	droppedPkBitError:sum(packetBytes) 	0
attr interpolationmode  none
attr source  dropPkBitError
attr title  "packets dropped/bit error, sum(packetBytes)"
statistic OrionNetwork.host[7].wlan[0].queue 	queueingTime:histogram
field count 11
field mean 0
field stddev 0
field sum 0
field sqrsum 0
field min 0
field max 0
attr interpolationmode  none
attr title  "queueing time, histogram"
bin	-INF	0
bin	-0.5	0
bin	-0.46666666666667	0
bin	-0.43333333333333	0
bin	-0.4	0
bin	-0.36666666666667	0
bin	-0.33333333333333	0
bin	-0.3	0
bin	-0.26666666666667	0
bin	-0.23333333333333	0
bin	-0.2	0
bin	-0.16666666666667	0
bin	-0.13333333333333	0
bin	-0.1	0
bin	-0.066666666666667	0
bin	-0.033333333333333	0
bin	-6.9388939039072e-018	11
bin	0.033333333333333	0
bin	0.066666666666667	0
bin	0.1	0
bin	0.13333333333333	0
bin	0.16666666666667	0
bin	0.2	0
bin	0.23333333333333	0
bin	0.26666666666667	0
bin	0.3	0
bin	0.33333333333333	0
bin	0.36666666666667	0
bin	0.4	0
bin	0.43333333333333	0
bin	0.46666666666667	0
bin	0.5	0
scalar OrionNetwork.host[7].wlan[0].queue 	dropPk:count 	0
attr interpolationmode  none
attr source  dropPkByQueue
attr title  "dropped packets, count"
scalar OrionNetwork.host[7].wlan[0].queue 	dropPk:sum(packetBytes) 	0
attr interpolationmode  none
attr source  dropPkByQueue
attr title  "dropped packets, sum(packetBytes)"
scalar OrionNetwork.host[7].wlan[0].queue 	queueLength:max 	0
attr interpolationmode  sample-hold
attr title  "queue length, max"
scalar OrionNetwork.host[7].wlan[0].queue 	queueLength:timeavg 	0
attr interpolationmode  sample-hold
attr title  "queue length, timeavg"
scalar OrionNetwork.host[7].wlan[0].queue 	rcvdPk:count 	11
attr interpolationmode  none
attr title  "received packets, count"
scalar OrionNetwork.host[7].wlan[0].queue 	rcvdPk:sum(packetBytes) 	528
attr interpolationmode  none
attr title  "received packets, sum(packetBytes)"
scalar OrionNetwork.host[7].wlan[0].mac 	droppedPkNotForUs:count 	10
attr interpolationmode  none
attr source  dropPkNotForUs
attr title  "packets dropped/not for us, count"
scalar OrionNetwork.host[7].wlan[0].mac 	droppedPkNotForUs:sum(packetBytes) 	380
attr interpolationmode  none
attr source  dropPkNotForUs
attr title  "packets dropped/not for us, sum(packetBytes)"
scalar OrionNetwork.host[7].wlan[0].mac 	rcvdPkFromHL:count 	11
attr interpolationmode  none
attr source  packetReceivedFromUpper
attr title  "packets received from higher layer, count"
scalar OrionNetwork.host[7].wlan[0].mac 	rcvdPkFromHL:sum(packetBytes) 	528
attr interpolationmode  none
attr source  packetReceivedFromUpper
attr title  "packets received from higher layer, sum(packetBytes)"
scalar OrionNetwork.host[7].wlan[0].mac 	passedUpPk:count 	60
attr interpolationmode  none
attr source  packetSentToUpper
attr title  "packets passed to higher layer, count"
scalar OrionNetwork.host[7].wlan[0].mac 	passedUpPk:sum(packetBytes) 	2820
attr interpolationmode  none
attr source  packetSentToUpper
attr title  "packets passed to higher layer, sum(packetBytes)"
scalar OrionNetwork.host[7].wlan[0].mac 	rcvdPkFromLL:count 	70
attr interpolationmode  none
attr source  packetReceivedFromLower
attr title  "packets received from lower layer, count"
scalar OrionNetwork.host[7].wlan[0].mac 	rcvdPkFromLL:sum(packetBytes) 	3800
attr interpolationmode  none
attr source  packetReceivedFromLower
attr title  "packets received from lower layer, sum(packetBytes)"
scalar OrionNetwork.host[7].wlan[0].mac 	sentDownPk:count 	11
attr interpolationmode  none
attr source  packetSentToLower
attr title  "packets sent to lower layer, count"
scalar OrionNetwork.host[7].wlan[0].mac 	sentDownPk:sum(packetBytes) 	638
attr interpolationmode  none
attr source  packetSentToLower
attr title  "packets sent to lower layer, sum(packetBytes)"
scalar OrionNetwork.host[7].udpApp[0] 	"packets sent" 	11
scalar OrionNetwork.host[7].udpApp[0] 	"packets received" 	57
scalar OrionNetwork.host[7].udpApp[0] 	sentPk:count 	11
attr interpolationmode  none
attr source  sentPk
attr title  "packets sent, count"
scalar OrionNetwork.host[7].udpApp[0] 	sentPk:sum(packetBytes) 	220
attr interpolationmode  none
attr source  sentPk
attr title  "packets sent, sum(packetBytes)"
scalar OrionNetwork.host[7].udpApp[0] 	rcvdPk:count 	57
attr interpolationmode  none
attr source  rcvdPk
attr title  "packets received, count"
scalar OrionNetwork.host[7].udpApp[0] 	rcvdPk:sum(packetBytes) 	1140
attr interpolationmode  none
attr source  rcvdPk
attr title  "packets received, sum(packetBytes)"
statistic OrionNetwork.host[7].udpApp[0] 	rcvdPkLifetime:stats
field count 57
field mean 0.00023528594233333
field stddev 2.0227486519512e-005
field sum 0.013411298713
field sqrsum 3.1784025234123e-006
field min 0.00023218693
field max 0.000385317321
attr interpolationmode  none
attr source  messageAge(rcvdPk)
attr title  "received packet lifetime, stats"
attr unit  s
scalar OrionNetwork.host[7].udp 	droppedPkBadChecksum:count 	0
attr interpolationmode  none
attr title  "packets dropped (checksum error), count"
scalar OrionNetwork.host[7].udp 	droppedPkWrongPort:count 	0
attr interpolationmode  none
attr title  "packets dropped (wrong port), count"
scalar OrionNetwork.host[7].udp 	passedUpPk:count 	57
attr interpolationmode  none
attr title  "packets passed up, count"
scalar OrionNetwork.host[7].udp 	sentPk:count 	11
attr interpolationmode  none
attr source  sentPk
attr title  "packets sent, count"
scalar OrionNetwork.host[7].udp 	sentPk:sum(packetBytes) 	308
attr interpolationmode  none
attr source  sentPk
attr title  "packets sent, sum(packetBytes)"
scalar OrionNetwork.host[7].udp 	rcvdPk:count 	57
attr interpolationmode  none
attr source  rcvdPk
attr title  "packets received, count"
scalar OrionNetwork.host[7].udp 	rcvdPk:sum(packetBytes) 	1596
attr interpolationmode  none
attr source  rcvdPk
attr title  "packets received, sum(packetBytes)"
scalar OrionNetwork.host[8].networkLayer.arp 	initiatedARPResolution:count 	0
attr title  "ARP initiated resolutions, count"
scalar OrionNetwork.host[8].networkLayer.arp 	sentReply:count 	0
attr title  "ARP replies sent, count"
scalar OrionNetwork.host[8].networkLayer.arp 	sentReq:count 	0
attr title  "ARP request sent, count"
scalar OrionNetwork.host[8].networkLayer.arp 	failedARPResolution:count 	0
attr title  "ARP failed resolutions, count"
scalar OrionNetwork.host[8].networkLayer.arp 	completedARPResolution:count 	0
attr title  "ARP completed resolutions, count"
scalar OrionNetwork.host[8].lo0.lo 	rcvdPkFromHL:count 	0
attr interpolationmode  none
attr source  packetReceivedFromUpper
attr title  "packets received from higher layer, count"
scalar OrionNetwork.host[8].lo0.lo 	rcvdPkFromHL:sum(packetBytes) 	0
attr interpolationmode  none
attr source  packetReceivedFromUpper
attr title  "packets received from higher layer, sum(packetBytes)"
scalar OrionNetwork.host[8].lo0.lo 	passedUpPk:count 	0
attr interpolationmode  none
attr source  packetSentToUpper
attr title  "packets passed to higher layer, count"
scalar OrionNetwork.host[8].lo0.lo 	passedUpPk:sum(packetBytes) 	0
attr interpolationmode  none
attr source  packetSentToUpper
attr title  "packets passed to higher layer, sum(packetBytes)"
scalar OrionNetwork.host[8].lo0.lo 	droppedPkBitError:count 	0
attr interpolationmode  none
attr source  dropPkBitError
attr title  "packets dropped/bit error, count"
scalar OrionNetwork.host[8].lo0.lo 	droppedPkBitError:sum(packetBytes) 	0
attr interpolationmode  none
attr source  dropPkBitError
attr title  "packets dropped/bit error, sum(packetBytes)"
statistic OrionNetwork.host[8].wlan[0].queue 	queueingTime:histogram
field count 7
field mean 0
field stddev 0
field sum 0
field sqrsum 0
field min 0
field max 0
attr interpolationmode  none
attr title  "queueing time, histogram"
bin	-INF	0
bin	-0.5	0
bin	-0.46666666666667	0
bin	-0.43333333333333	0
bin	-0.4	0
bin	-0.36666666666667	0
bin	-0.33333333333333	0
bin	-0.3	0
bin	-0.26666666666667	0
bin	-0.23333333333333	0
bin	-0.2	0
bin	-0.16666666666667	0
bin	-0.13333333333333	0
bin	-0.1	0
bin	-0.066666666666667	0
bin	-0.033333333333333	0
bin	-6.9388939039072e-018	7
bin	0.033333333333333	0
bin	0.066666666666667	0
bin	0.1	0
bin	0.13333333333333	0
bin	0.16666666666667	0
bin	0.2	0
bin	0.23333333333333	0
bin	0.26666666666667	0
bin	0.3	0
bin	0.33333333333333	0
bin	0.36666666666667	0
bin	0.4	0
bin	0.43333333333333	0
bin	0.46666666666667	0
bin	0.5	0
scalar OrionNetwork.host[8].wlan[0].queue 	dropPk:count 	0
attr interpolationmode  none
attr source  dropPkByQueue
attr title  "dropped packets, count"
scalar OrionNetwork.host[8].wlan[0].queue 	dropPk:sum(packetBytes) 	0
attr interpolationmode  none
attr source  dropPkByQueue
attr title  "dropped packets, sum(packetBytes)"
scalar OrionNetwork.host[8].wlan[0].queue 	queueLength:max 	0
attr interpolationmode  sample-hold
attr title  "queue length, max"
scalar OrionNetwork.host[8].wlan[0].queue 	queueLength:timeavg 	0
attr interpolationmode  sample-hold
attr title  "queue length, timeavg"
scalar OrionNetwork.host[8].wlan[0].queue 	rcvdPk:count 	7
attr interpolationmode  none
attr title  "received packets, count"
scalar OrionNetwork.host[8].wlan[0].queue 	rcvdPk:sum(packetBytes) 	336
attr interpolationmode  none
attr title  "received packets, sum(packetBytes)"
scalar OrionNetwork.host[8].wlan[0].mac 	droppedPkNotForUs:count 	0
attr interpolationmode  none
attr source  dropPkNotForUs
attr title  "packets dropped/not for us, count"
scalar OrionNetwork.host[8].wlan[0].mac 	droppedPkNotForUs:sum(packetBytes) 	0
attr interpolationmode  none
attr source  dropPkNotForUs
attr title  "packets dropped/not for us, sum(packetBytes)"
scalar OrionNetwork.host[8].wlan[0].mac 	rcvdPkFromHL:count 	7
attr interpolationmode  none
attr source  packetReceivedFromUpper
attr title  "packets received from higher layer, count"
scalar OrionNetwork.host[8].wlan[0].mac 	rcvdPkFromHL:sum(packetBytes) 	336
attr interpolationmode  none
attr source  packetReceivedFromUpper
attr title  "packets received from higher layer, sum(packetBytes)"
scalar OrionNetwork.host[8].wlan[0].mac 	passedUpPk:count 	15
attr interpolationmode  none
attr source  packetSentToUpper
attr title  "packets passed to higher layer, count"
scalar OrionNetwork.host[8].wlan[0].mac 	passedUpPk:sum(packetBytes) 	720
attr interpolationmode  none
attr source  packetSentToUpper
attr title  "packets passed to higher layer, sum(packetBytes)"
scalar OrionNetwork.host[8].wlan[0].mac 	rcvdPkFromLL:count 	15
attr interpolationmode  none
attr source  packetReceivedFromLower
attr title  "packets received from lower layer, count"
scalar OrionNetwork.host[8].wlan[0].mac 	rcvdPkFromLL:sum(packetBytes) 	870
attr interpolationmode  none
attr source  packetReceivedFromLower
attr title  "packets received from lower layer, sum(packetBytes)"
scalar OrionNetwork.host[8].wlan[0].mac 	sentDownPk:count 	7
attr interpolationmode  none
attr source  packetSentToLower
attr title  "packets sent to lower layer, count"
scalar OrionNetwork.host[8].wlan[0].mac 	sentDownPk:sum(packetBytes) 	406
attr interpolationmode  none
attr source  packetSentToLower
attr title  "packets sent to lower layer, sum(packetBytes)"
scalar OrionNetwork.host[8].udpApp[0] 	"packets sent" 	7
scalar OrionNetwork.host[8].udpApp[0] 	"packets received" 	15
scalar OrionNetwork.host[8].udpApp[0] 	sentPk:count 	7
attr interpolationmode  none
attr source  sentPk
attr title  "packets sent, count"
scalar OrionNetwork.host[8].udpApp[0] 	sentPk:sum(packetBytes) 	140
attr interpolationmode  none
attr source  sentPk
attr title  "packets sent, sum(packetBytes)"
scalar OrionNetwork.host[8].udpApp[0] 	rcvdPk:count 	15
attr interpolationmode  none
attr source  rcvdPk
attr title  "packets received, count"
scalar OrionNetwork.host[8].udpApp[0] 	rcvdPk:sum(packetBytes) 	300
attr interpolationmode  none
attr source  rcvdPk
attr title  "packets received, sum(packetBytes)"
statistic OrionNetwork.host[8].udpApp[0] 	rcvdPkLifetime:stats
field count 15
field mean 0.000232631325
field stddev 1.7770869317457e-007
field sum 0.003489469875
field sqrsum 8.1176044269415e-007
field min 0.000232204733
field max 0.000232785593
attr interpolationmode  none
attr source  messageAge(rcvdPk)
attr title  "received packet lifetime, stats"
attr unit  s
scalar OrionNetwork.host[8].udp 	droppedPkBadChecksum:count 	0
attr interpolationmode  none
attr title  "packets dropped (checksum error), count"
scalar OrionNetwork.host[8].udp 	droppedPkWrongPort:count 	0
attr interpolationmode  none
attr title  "packets dropped (wrong port), count"
scalar OrionNetwork.host[8].udp 	passedUpPk:count 	15
attr interpolationmode  none
attr title  "packets passed up, count"
scalar OrionNetwork.host[8].udp 	sentPk:count 	7
attr interpolationmode  none
attr source  sentPk
attr title  "packets sent, count"
scalar OrionNetwork.host[8].udp 	sentPk:sum(packetBytes) 	196
attr interpolationmode  none
attr source  sentPk
attr title  "packets sent, sum(packetBytes)"
scalar OrionNetwork.host[8].udp 	rcvdPk:count 	15
attr interpolationmode  none
attr source  rcvdPk
attr title  "packets received, count"
scalar OrionNetwork.host[8].udp 	rcvdPk:sum(packetBytes) 	420
attr interpolationmode  none
attr source  rcvdPk
attr title  "packets received, sum(packetBytes)"
scalar OrionNetwork.host[9].networkLayer.arp 	initiatedARPResolution:count 	1
attr title  "ARP initiated resolutions, count"
scalar OrionNetwork.host[9].networkLayer.arp 	sentReply:count 	1
attr title  "ARP replies sent, count"
scalar OrionNetwork.host[9].networkLayer.arp 	sentReq:count 	1
attr title  "ARP request sent, count"
scalar OrionNetwork.host[9].networkLayer.arp 	failedARPResolution:count 	0
attr title  "ARP failed resolutions, count"
scalar OrionNetwork.host[9].networkLayer.arp 	completedARPResolution:count 	2
attr title  "ARP completed resolutions, count"
scalar OrionNetwork.host[9].lo0.lo 	rcvdPkFromHL:count 	0
attr interpolationmode  none
attr source  packetReceivedFromUpper
attr title  "packets received from higher layer, count"
scalar OrionNetwork.host[9].lo0.lo 	rcvdPkFromHL:sum(packetBytes) 	0
attr interpolationmode  none
attr source  packetReceivedFromUpper
attr title  "packets received from higher layer, sum(packetBytes)"
scalar OrionNetwork.host[9].lo0.lo 	passedUpPk:count 	0
attr interpolationmode  none
attr source  packetSentToUpper
attr title  "packets passed to higher layer, count"
scalar OrionNetwork.host[9].lo0.lo 	passedUpPk:sum(packetBytes) 	0
attr interpolationmode  none
attr source  packetSentToUpper
attr title  "packets passed to higher layer, sum(packetBytes)"
scalar OrionNetwork.host[9].lo0.lo 	droppedPkBitError:count 	0
attr interpolationmode  none
attr source  dropPkBitError
attr title  "packets dropped/bit error, count"
scalar OrionNetwork.host[9].lo0.lo 	droppedPkBitError:sum(packetBytes) 	0
attr interpolationmode  none
attr source  dropPkBitError
attr title  "packets dropped/bit error, sum(packetBytes)"
statistic OrionNetwork.host[9].wlan[0].queue 	queueingTime:histogram
field count 10
field mean 0
field stddev 0
field sum 0
field sqrsum 0
field min 0
field max 0
attr interpolationmode  none
attr title  "queueing time, histogram"
bin	-INF	0
bin	-0.5	0
bin	-0.46666666666667	0
bin	-0.43333333333333	0
bin	-0.4	0
bin	-0.36666666666667	0
bin	-0.33333333333333	0
bin	-0.3	0
bin	-0.26666666666667	0
bin	-0.23333333333333	0
bin	-0.2	0
bin	-0.16666666666667	0
bin	-0.13333333333333	0
bin	-0.1	0
bin	-0.066666666666667	0
bin	-0.033333333333333	0
bin	-6.9388939039072e-018	10
bin	0.033333333333333	0
bin	0.066666666666667	0
bin	0.1	0
bin	0.13333333333333	0
bin	0.16666666666667	0
bin	0.2	0
bin	0.23333333333333	0
bin	0.26666666666667	0
bin	0.3	0
bin	0.33333333333333	0
bin	0.36666666666667	0
bin	0.4	0
bin	0.43333333333333	0
bin	0.46666666666667	0
bin	0.5	0
scalar OrionNetwork.host[9].wlan[0].queue 	dropPk:count 	0
attr interpolationmode  none
attr source  dropPkByQueue
attr title  "dropped packets, count"
scalar OrionNetwork.host[9].wlan[0].queue 	dropPk:sum(packetBytes) 	0
attr interpolationmode  none
attr source  dropPkByQueue
attr title  "dropped packets, sum(packetBytes)"
scalar OrionNetwork.host[9].wlan[0].queue 	queueLength:max 	0
attr interpolationmode  sample-hold
attr title  "queue length, max"
scalar OrionNetwork.host[9].wlan[0].queue 	queueLength:timeavg 	0
attr interpolationmode  sample-hold
attr title  "queue length, timeavg"
scalar OrionNetwork.host[9].wlan[0].queue 	rcvdPk:count 	10
attr interpolationmode  none
attr title  "received packets, count"
scalar OrionNetwork.host[9].wlan[0].queue 	rcvdPk:sum(packetBytes) 	420
attr interpolationmode  none
attr title  "received packets, sum(packetBytes)"
scalar OrionNetwork.host[9].wlan[0].mac 	droppedPkNotForUs:count 	2
attr interpolationmode  none
attr source  dropPkNotForUs
attr title  "packets dropped/not for us, count"
scalar OrionNetwork.host[9].wlan[0].mac 	droppedPkNotForUs:sum(packetBytes) 	76
attr interpolationmode  none
attr source  dropPkNotForUs
attr title  "packets dropped/not for us, sum(packetBytes)"
scalar OrionNetwork.host[9].wlan[0].mac 	rcvdPkFromHL:count 	10
attr interpolationmode  none
attr source  packetReceivedFromUpper
attr title  "packets received from higher layer, count"
scalar OrionNetwork.host[9].wlan[0].mac 	rcvdPkFromHL:sum(packetBytes) 	420
attr interpolationmode  none
attr source  packetReceivedFromUpper
attr title  "packets received from higher layer, sum(packetBytes)"
scalar OrionNetwork.host[9].wlan[0].mac 	passedUpPk:count 	22
attr interpolationmode  none
attr source  packetSentToUpper
attr title  "packets passed to higher layer, count"
scalar OrionNetwork.host[9].wlan[0].mac 	passedUpPk:sum(packetBytes) 	976
attr interpolationmode  none
attr source  packetSentToUpper
attr title  "packets passed to higher layer, sum(packetBytes)"
scalar OrionNetwork.host[9].wlan[0].mac 	rcvdPkFromLL:count 	24
attr interpolationmode  none
attr source  packetReceivedFromLower
attr title  "packets received from lower layer, count"
scalar OrionNetwork.host[9].wlan[0].mac 	rcvdPkFromLL:sum(packetBytes) 	1272
attr interpolationmode  none
attr source  packetReceivedFromLower
attr title  "packets received from lower layer, sum(packetBytes)"
scalar OrionNetwork.host[9].wlan[0].mac 	sentDownPk:count 	10
attr interpolationmode  none
attr source  packetSentToLower
attr title  "packets sent to lower layer, count"
scalar OrionNetwork.host[9].wlan[0].mac 	sentDownPk:sum(packetBytes) 	520
attr interpolationmode  none
attr source  packetSentToLower
attr title  "packets sent to lower layer, sum(packetBytes)"
scalar OrionNetwork.host[9].udpApp[0] 	"packets sent" 	7
scalar OrionNetwork.host[9].udpApp[0] 	"packets received" 	19
scalar OrionNetwork.host[9].udpApp[0] 	sentPk:count 	7
attr interpolationmode  none
attr source  sentPk
attr title  "packets sent, count"
scalar OrionNetwork.host[9].udpApp[0] 	sentPk:sum(packetBytes) 	140
attr interpolationmode  none
attr source  sentPk
attr title  "packets sent, sum(packetBytes)"
scalar OrionNetwork.host[9].udpApp[0] 	rcvdPk:count 	19
attr interpolationmode  none
attr source  rcvdPk
attr title  "packets received, count"
scalar OrionNetwork.host[9].udpApp[0] 	rcvdPk:sum(packetBytes) 	360
attr interpolationmode  none
attr source  rcvdPk
attr title  "packets received, sum(packetBytes)"
statistic OrionNetwork.host[9].udpApp[0] 	rcvdPkLifetime:stats
field count 19
field mean 0.00025666643673684
field stddev 0.00010498148132773
field sum 0.004876662298
field sqrsum 1.4500555407883e-006
field min 0.000232079105
field max 0.000690184987
attr interpolationmode  none
attr source  messageAge(rcvdPk)
attr title  "received packet lifetime, stats"
attr unit  s
scalar OrionNetwork.host[9].udp 	droppedPkBadChecksum:count 	0
attr interpolationmode  none
attr title  "packets dropped (checksum error), count"
scalar OrionNetwork.host[9].udp 	droppedPkWrongPort:count 	0
attr interpolationmode  none
attr title  "packets dropped (wrong port), count"
scalar OrionNetwork.host[9].udp 	passedUpPk:count 	19
attr interpolationmode  none
attr title  "packets passed up, count"
scalar OrionNetwork.host[9].udp 	sentPk:count 	8
attr interpolationmode  none
attr source  sentPk
attr title  "packets sent, count"
scalar OrionNetwork.host[9].udp 	sentPk:sum(packetBytes) 	204
attr interpolationmode  none
attr source  sentPk
attr title  "packets sent, sum(packetBytes)"
scalar OrionNetwork.host[9].udp 	rcvdPk:count 	19
attr interpolationmode  none
attr source  rcvdPk
attr title  "packets received, count"
scalar OrionNetwork.host[9].udp 	rcvdPk:sum(packetBytes) 	512
attr interpolationmode  none
attr source  rcvdPk
attr title  "packets received, sum(packetBytes)"
scalar OrionNetwork.host[10].networkLayer.arp 	initiatedARPResolution:count 	0
attr title  "ARP initiated resolutions, count"
scalar OrionNetwork.host[10].networkLayer.arp 	sentReply:count 	0
attr title  "ARP replies sent, count"
scalar OrionNetwork.host[10].networkLayer.arp 	sentReq:count 	0
attr title  "ARP request sent, count"
scalar OrionNetwork.host[10].networkLayer.arp 	failedARPResolution:count 	0
attr title  "ARP failed resolutions, count"
scalar OrionNetwork.host[10].networkLayer.arp 	completedARPResolution:count 	0
attr title  "ARP completed resolutions, count"
scalar OrionNetwork.host[10].lo0.lo 	rcvdPkFromHL:count 	0
attr interpolationmode  none
attr source  packetReceivedFromUpper
attr title  "packets received from higher layer, count"
scalar OrionNetwork.host[10].lo0.lo 	rcvdPkFromHL:sum(packetBytes) 	0
attr interpolationmode  none
attr source  packetReceivedFromUpper
attr title  "packets received from higher layer, sum(packetBytes)"
scalar OrionNetwork.host[10].lo0.lo 	passedUpPk:count 	0
attr interpolationmode  none
attr source  packetSentToUpper
attr title  "packets passed to higher layer, count"
scalar OrionNetwork.host[10].lo0.lo 	passedUpPk:sum(packetBytes) 	0
attr interpolationmode  none
attr source  packetSentToUpper
attr title  "packets passed to higher layer, sum(packetBytes)"
scalar OrionNetwork.host[10].lo0.lo 	droppedPkBitError:count 	0
attr interpolationmode  none
attr source  dropPkBitError
attr title  "packets dropped/bit error, count"
scalar OrionNetwork.host[10].lo0.lo 	droppedPkBitError:sum(packetBytes) 	0
attr interpolationmode  none
attr source  dropPkBitError
attr title  "packets dropped/bit error, sum(packetBytes)"
statistic OrionNetwork.host[10].wlan[0].queue 	queueingTime:histogram
field count 4
field mean 0
field stddev 0
field sum 0
field sqrsum 0
field min 0
field max 0
attr interpolationmode  none
attr title  "queueing time, histogram"
bin	-INF	0
bin	-0.5	0
bin	-0.46666666666667	0
bin	-0.43333333333333	0
bin	-0.4	0
bin	-0.36666666666667	0
bin	-0.33333333333333	0
bin	-0.3	0
bin	-0.26666666666667	0
bin	-0.23333333333333	0
bin	-0.2	0
bin	-0.16666666666667	0
bin	-0.13333333333333	0
bin	-0.1	0
bin	-0.066666666666667	0
bin	-0.033333333333333	0
bin	-6.9388939039072e-018	4
bin	0.033333333333333	0
bin	0.066666666666667	0
bin	0.1	0
bin	0.13333333333333	0
bin	0.16666666666667	0
bin	0.2	0
bin	0.23333333333333	0
bin	0.26666666666667	0
bin	0.3	0
bin	0.33333333333333	0
bin	0.36666666666667	0
bin	0.4	0
bin	0.43333333333333	0
bin	0.46666666666667	0
bin	0.5	0
scalar OrionNetwork.host[10].wlan[0].queue 	dropPk:count 	0
attr interpolationmode  none
attr source  dropPkByQueue
attr title  "dropped packets, count"
scalar OrionNetwork.host[10].wlan[0].queue 	dropPk:sum(packetBytes) 	0
attr interpolationmode  none
attr source  dropPkByQueue
attr title  "dropped packets, sum(packetBytes)"
scalar OrionNetwork.host[10].wlan[0].queue 	queueLength:max 	0
attr interpolationmode  sample-hold
attr title  "queue length, max"
scalar OrionNetwork.host[10].wlan[0].queue 	queueLength:timeavg 	0
attr interpolationmode  sample-hold
attr title  "queue length, timeavg"
scalar OrionNetwork.host[10].wlan[0].queue 	rcvdPk:count 	4
attr interpolationmode  none
attr title  "received packets, count"
scalar OrionNetwork.host[10].wlan[0].queue 	rcvdPk:sum(packetBytes) 	192
attr interpolationmode  none
attr title  "received packets, sum(packetBytes)"
scalar OrionNetwork.host[10].wlan[0].mac 	droppedPkNotForUs:count 	3
attr interpolationmode  none
attr source  dropPkNotForUs
attr title  "packets dropped/not for us, count"
scalar OrionNetwork.host[10].wlan[0].mac 	droppedPkNotForUs:sum(packetBytes) 	114
attr interpolationmode  none
attr source  dropPkNotForUs
attr title  "packets dropped/not for us, sum(packetBytes)"
scalar OrionNetwork.host[10].wlan[0].mac 	rcvdPkFromHL:count 	4
attr interpolationmode  none
attr source  packetReceivedFromUpper
attr title  "packets received from higher layer, count"
scalar OrionNetwork.host[10].wlan[0].mac 	rcvdPkFromHL:sum(packetBytes) 	192
attr interpolationmode  none
attr source  packetReceivedFromUpper
attr title  "packets received from higher layer, sum(packetBytes)"
scalar OrionNetwork.host[10].wlan[0].mac 	passedUpPk:count 	9
attr interpolationmode  none
attr source  packetSentToUpper
attr title  "packets passed to higher layer, count"
scalar OrionNetwork.host[10].wlan[0].mac 	passedUpPk:sum(packetBytes) 	392
attr interpolationmode  none
attr source  packetSentToUpper
attr title  "packets passed to higher layer, sum(packetBytes)"
scalar OrionNetwork.host[10].wlan[0].mac 	rcvdPkFromLL:count 	12
attr interpolationmode  none
attr source  packetReceivedFromLower
attr title  "packets received from lower layer, count"
scalar OrionNetwork.host[10].wlan[0].mac 	rcvdPkFromLL:sum(packetBytes) 	596
attr interpolationmode  none
attr source  packetReceivedFromLower
attr title  "packets received from lower layer, sum(packetBytes)"
scalar OrionNetwork.host[10].wlan[0].mac 	sentDownPk:count 	4
attr interpolationmode  none
attr source  packetSentToLower
attr title  "packets sent to lower layer, count"
scalar OrionNetwork.host[10].wlan[0].mac 	sentDownPk:sum(packetBytes) 	232
attr interpolationmode  none
attr source  packetSentToLower
[...]
bin	0.00031706666666667	0
bin	0.00033253333333333	0
bin	0.000348	0
scalar OrionNetwork.host[12].wlan[0].queue 	dropPk:count 	0
attr interpolationmode  none
attr source  dropPkByQueue
attr title  "dropped packets, count"
scalar OrionNetwork.host[12].wlan[0].queue 	dropPk:sum(packetBytes) 	0
attr interpolationmode  none
attr source  dropPkByQueue
attr title  "dropped packets, sum(packetBytes)"
scalar OrionNetwork.host[12].wlan[0].queue 	queueLength:max 	1
attr interpolationmode  sample-hold
attr title  "queue length, max"
scalar OrionNetwork.host[12].wlan[0].queue 	queueLength:timeavg 	3.8666666666667e-006
attr interpolationmode  sample-hold
attr title  "queue length, timeavg"
scalar OrionNetwork.host[12].wlan[0].queue 	rcvdPk:count 	13
attr interpolationmode  none
attr title  "received packets, count"
scalar OrionNetwork.host[12].wlan[0].queue 	rcvdPk:sum(packetBytes) 	584
attr interpolationmode  none
attr title  "received packets, sum(packetBytes)"
scalar OrionNetwork.host[12].wlan[0].mac 	droppedPkNotForUs:count 	8
attr interpolationmode  none
attr source  dropPkNotForUs
attr title  "packets dropped/not for us, count"
scalar OrionNetwork.host[12].wlan[0].mac 	droppedPkNotForUs:sum(packetBytes) 	304
attr interpolationmode  none
attr source  dropPkNotForUs
attr title  "packets dropped/not for us, sum(packetBytes)"
scalar OrionNetwork.host[12].wlan[0].mac 	rcvdPkFromHL:count 	13
attr interpolationmode  none
attr source  packetReceivedFromUpper
attr title  "packets received from higher layer, count"
scalar OrionNetwork.host[12].wlan[0].mac 	rcvdPkFromHL:sum(packetBytes) 	584
attr interpolationmode  none
attr source  packetReceivedFromUpper
attr title  "packets received from higher layer, sum(packetBytes)"
scalar OrionNetwork.host[12].wlan[0].mac 	passedUpPk:count 	46
attr interpolationmode  none
attr source  packetSentToUpper
attr title  "packets passed to higher layer, count"
scalar OrionNetwork.host[12].wlan[0].mac 	passedUpPk:sum(packetBytes) 	2148
attr interpolationmode  none
attr source  packetSentToUpper
attr title  "packets passed to higher layer, sum(packetBytes)"
scalar OrionNetwork.host[12].wlan[0].mac 	rcvdPkFromLL:count 	54
attr interpolationmode  none
attr source  packetReceivedFromLower
attr title  "packets received from lower layer, count"
scalar OrionNetwork.host[12].wlan[0].mac 	rcvdPkFromLL:sum(packetBytes) 	2912
attr interpolationmode  none
attr source  packetReceivedFromLower
attr title  "packets received from lower layer, sum(packetBytes)"
scalar OrionNetwork.host[12].wlan[0].mac 	sentDownPk:count 	13
attr interpolationmode  none
attr source  packetSentToLower
attr title  "packets sent to lower layer, count"
scalar OrionNetwork.host[12].wlan[0].mac 	sentDownPk:sum(packetBytes) 	714
attr interpolationmode  none
attr source  packetSentToLower
attr title  "packets sent to lower layer, sum(packetBytes)"
scalar OrionNetwork.host[12].udpApp[0] 	"packets sent" 	11
scalar OrionNetwork.host[12].udpApp[0] 	"packets received" 	43
scalar OrionNetwork.host[12].udpApp[0] 	sentPk:count 	11
attr interpolationmode  none
attr source  sentPk
attr title  "packets sent, count"
scalar OrionNetwork.host[12].udpApp[0] 	sentPk:sum(packetBytes) 	220
attr interpolationmode  none
attr source  sentPk
attr title  "packets sent, sum(packetBytes)"
scalar OrionNetwork.host[12].udpApp[0] 	rcvdPk:count 	43
attr interpolationmode  none
attr source  rcvdPk
attr title  "packets received, count"
scalar OrionNetwork.host[12].udpApp[0] 	rcvdPk:sum(packetBytes) 	860
attr interpolationmode  none
attr source  rcvdPk
attr title  "packets received, sum(packetBytes)"
statistic OrionNetwork.host[12].udpApp[0] 	rcvdPkLifetime:stats
field count 43
field mean 0.00023606887693023
field stddev 2.3208847205166e-005
field sum 0.010150961708
field sqrsum 2.4189494548902e-006
field min 0.000232140722
field max 0.00038471563
attr interpolationmode  none
attr source  messageAge(rcvdPk)
attr title  "received packet lifetime, stats"
attr unit  s
scalar OrionNetwork.host[12].udp 	droppedPkBadChecksum:count 	0
attr interpolationmode  none
attr title  "packets dropped (checksum error), count"
scalar OrionNetwork.host[12].udp 	droppedPkWrongPort:count 	0
attr interpolationmode  none
attr title  "packets dropped (wrong port), count"
scalar OrionNetwork.host[12].udp 	passedUpPk:count 	43
attr interpolationmode  none
attr title  "packets passed up, count"
scalar OrionNetwork.host[12].udp 	sentPk:count 	12
attr interpolationmode  none
attr source  sentPk
attr title  "packets sent, count"
scalar OrionNetwork.host[12].udp 	sentPk:sum(packetBytes) 	316
attr interpolationmode  none
attr source  sentPk
attr title  "packets sent, sum(packetBytes)"
scalar OrionNetwork.host[12].udp 	rcvdPk:count 	43
attr interpolationmode  none
attr source  rcvdPk
attr title  "packets received, count"
scalar OrionNetwork.host[12].udp 	rcvdPk:sum(packetBytes) 	1204
attr interpolationmode  none
attr source  rcvdPk
attr title  "packets received, sum(packetBytes)"
scalar OrionNetwork.host[13].networkLayer.arp 	initiatedARPResolution:count 	1
attr title  "ARP initiated resolutions, count"
scalar OrionNetwork.host[13].networkLayer.arp 	sentReply:count 	1
attr title  "ARP replies sent, count"
scalar OrionNetwork.host[13].networkLayer.arp 	sentReq:count 	1
attr title  "ARP request sent, count"
scalar OrionNetwork.host[13].networkLayer.arp 	failedARPResolution:count 	0
attr title  "ARP failed resolutions, count"
scalar OrionNetwork.host[13].networkLayer.arp 	completedARPResolution:count 	3
attr title  "ARP completed resolutions, count"
scalar OrionNetwork.host[13].lo0.lo 	rcvdPkFromHL:count 	0
attr interpolationmode  none
attr source  packetReceivedFromUpper
attr title  "packets received from higher layer, count"
scalar OrionNetwork.host[13].lo0.lo 	rcvdPkFromHL:sum(packetBytes) 	0
attr interpolationmode  none
attr source  packetReceivedFromUpper
attr title  "packets received from higher layer, sum(packetBytes)"
scalar OrionNetwork.host[13].lo0.lo 	passedUpPk:count 	0
attr interpolationmode  none
attr source  packetSentToUpper
attr title  "packets passed to higher layer, count"
scalar OrionNetwork.host[13].lo0.lo 	passedUpPk:sum(packetBytes) 	0
attr interpolationmode  none
attr source  packetSentToUpper
attr title  "packets passed to higher layer, sum(packetBytes)"
scalar OrionNetwork.host[13].lo0.lo 	droppedPkBitError:count 	0
attr interpolationmode  none
attr source  dropPkBitError
attr title  "packets dropped/bit error, count"
scalar OrionNetwork.host[13].lo0.lo 	droppedPkBitError:sum(packetBytes) 	0
attr interpolationmode  none
attr source  dropPkBitError
attr title  "packets dropped/bit error, sum(packetBytes)"
statistic OrionNetwork.host[13].wlan[0].queue 	queueingTime:histogram
field count 9
field mean 2.5777777777778e-005
field stddev 7.7333333333333e-005
field sum 0.000232
field sqrsum 5.3824e-008
field min 0
field max 0.000232
attr interpolationmode  none
attr title  "queueing time, histogram"
bin	-INF	0
bin	-0.000116	0
bin	-0.00010053333333333	0
bin	-8.5066666666667e-005	0
bin	-6.96e-005	0
bin	-5.4133333333333e-005	0
bin	-3.8666666666667e-005	0
bin	-2.32e-005	0
bin	-7.7333333333333e-006	8
bin	7.7333333333333e-006	0
bin	2.32e-005	0
bin	3.8666666666667e-005	0
bin	5.4133333333333e-005	0
bin	6.96e-005	0
bin	8.5066666666667e-005	0
bin	0.00010053333333333	0
bin	0.000116	0
bin	0.00013146666666667	0
bin	0.00014693333333333	0
bin	0.0001624	0
bin	0.00017786666666667	0
bin	0.00019333333333333	0
bin	0.0002088	0
bin	0.00022426666666667	1
bin	0.00023973333333333	0
bin	0.0002552	0
bin	0.00027066666666667	0
bin	0.00028613333333333	0
bin	0.0003016	0
bin	0.00031706666666667	0
bin	0.00033253333333333	0
bin	0.000348	0
scalar OrionNetwork.host[13].wlan[0].queue 	dropPk:count 	0
attr interpolationmode  none
attr source  dropPkByQueue
attr title  "dropped packets, count"
scalar OrionNetwork.host[13].wlan[0].queue 	dropPk:sum(packetBytes) 	0
attr interpolationmode  none
attr source  dropPkByQueue
attr title  "dropped packets, sum(packetBytes)"
scalar OrionNetwork.host[13].wlan[0].queue 	queueLength:max 	1
attr interpolationmode  sample-hold
attr title  "queue length, max"
scalar OrionNetwork.host[13].wlan[0].queue 	queueLength:timeavg 	3.8666666666667e-006
attr interpolationmode  sample-hold
attr title  "queue length, timeavg"
scalar OrionNetwork.host[13].wlan[0].queue 	rcvdPk:count 	9
attr interpolationmode  none
attr title  "received packets, count"
scalar OrionNetwork.host[13].wlan[0].queue 	rcvdPk:sum(packetBytes) 	352
attr interpolationmode  none
attr title  "received packets, sum(packetBytes)"
scalar OrionNetwork.host[13].wlan[0].mac 	droppedPkNotForUs:count 	2
attr interpolationmode  none
attr source  dropPkNotForUs
attr title  "packets dropped/not for us, count"
scalar OrionNetwork.host[13].wlan[0].mac 	droppedPkNotForUs:sum(packetBytes) 	76
attr interpolationmode  none
attr source  dropPkNotForUs
attr title  "packets dropped/not for us, sum(packetBytes)"
scalar OrionNetwork.host[13].wlan[0].mac 	rcvdPkFromHL:count 	9
attr interpolationmode  none
attr source  packetReceivedFromUpper
attr title  "packets received from higher layer, count"
scalar OrionNetwork.host[13].wlan[0].mac 	rcvdPkFromHL:sum(packetBytes) 	352
attr interpolationmode  none
attr source  packetReceivedFromUpper
attr title  "packets received from higher layer, sum(packetBytes)"
scalar OrionNetwork.host[13].wlan[0].mac 	passedUpPk:count 	21
attr interpolationmode  none
attr source  packetSentToUpper
attr title  "packets passed to higher layer, count"
scalar OrionNetwork.host[13].wlan[0].mac 	passedUpPk:sum(packetBytes) 	928
attr interpolationmode  none
attr source  packetSentToUpper
attr title  "packets passed to higher layer, sum(packetBytes)"
scalar OrionNetwork.host[13].wlan[0].mac 	rcvdPkFromLL:count 	23
attr interpolationmode  none
attr source  packetReceivedFromLower
attr title  "packets received from lower layer, count"
scalar OrionNetwork.host[13].wlan[0].mac 	rcvdPkFromLL:sum(packetBytes) 	1214
attr interpolationmode  none
attr source  packetReceivedFromLower
attr title  "packets received from lower layer, sum(packetBytes)"
scalar OrionNetwork.host[13].wlan[0].mac 	sentDownPk:count 	9
attr interpolationmode  none
attr source  packetSentToLower
attr title  "packets sent to lower layer, count"
scalar OrionNetwork.host[13].wlan[0].mac 	sentDownPk:sum(packetBytes) 	442
attr interpolationmode  none
attr source  packetSentToLower
attr title  "packets sent to lower layer, sum(packetBytes)"
scalar OrionNetwork.host[13].udpApp[0] 	"packets sent" 	5
scalar OrionNetwork.host[13].udpApp[0] 	"packets received" 	18
scalar OrionNetwork.host[13].udpApp[0] 	sentPk:count 	5
attr interpolationmode  none
attr source  sentPk
attr title  "packets sent, count"
scalar OrionNetwork.host[13].udpApp[0] 	sentPk:sum(packetBytes) 	100
attr interpolationmode  none
attr source  sentPk
attr title  "packets sent, sum(packetBytes)"
scalar OrionNetwork.host[13].udpApp[0] 	rcvdPk:count 	18
attr interpolationmode  none
attr source  rcvdPk
attr title  "packets received, count"
scalar OrionNetwork.host[13].udpApp[0] 	rcvdPk:sum(packetBytes) 	340
attr interpolationmode  none
attr source  rcvdPk
attr title  "packets received, sum(packetBytes)"
statistic OrionNetwork.host[13].udpApp[0] 	rcvdPkLifetime:stats
field count 18
field mean 0.00028347792877778
field stddev 0.00021584739612124
field sum 0.005102602718
field sqrsum 2.2385069228839e-006
field min 0.000232095559
field max 0.001148364664
attr interpolationmode  none
attr source  messageAge(rcvdPk)
attr title  "received packet lifetime, stats"
attr unit  s
scalar OrionNetwork.host[13].udp 	droppedPkBadChecksum:count 	0
attr interpolationmode  none
attr title  "packets dropped (checksum error), count"
scalar OrionNetwork.host[13].udp 	droppedPkWrongPort:count 	0
attr interpolationmode  none
attr title  "packets dropped (wrong port), count"
scalar OrionNetwork.host[13].udp 	passedUpPk:count 	18
attr interpolationmode  none
attr title  "packets passed up, count"
scalar OrionNetwork.host[13].udp 	sentPk:count 	7
attr interpolationmode  none
attr source  sentPk
attr title  "packets sent, count"
scalar OrionNetwork.host[13].udp 	sentPk:sum(packetBytes) 	156
attr interpolationmode  none
attr source  sentPk
attr title  "packets sent, sum(packetBytes)"
scalar OrionNetwork.host[13].udp 	rcvdPk:count 	18
attr interpolationmode  none
attr source  rcvdPk
attr title  "packets received, count"
scalar OrionNetwork.host[13].udp 	rcvdPk:sum(packetBytes) 	484
attr interpolationmode  none
attr source  rcvdPk
attr title  "packets received, sum(packetBytes)"
scalar OrionNetwork.host[14].networkLayer.arp 	initiatedARPResolution:count 	0
attr title  "ARP initiated resolutions, count"
scalar OrionNetwork.host[14].networkLayer.arp 	sentReply:count 	0
attr title  "ARP replies sent, count"
scalar OrionNetwork.host[14].networkLayer.arp 	sentReq:count 	0
attr title  "ARP request sent, count"
scalar OrionNetwork.host[14].networkLayer.arp 	failedARPResolution:count 	0
attr title  "ARP failed resolutions, count"
scalar OrionNetwork.host[14].networkLayer.arp 	completedARPResolution:count 	0
attr title  "ARP completed resolutions, count"
scalar OrionNetwork.host[14].lo0.lo 	rcvdPkFromHL:count 	0
attr interpolationmode  none
attr source  packetReceivedFromUpper
attr title  "packets received from higher layer, count"
scalar OrionNetwork.host[14].lo0.lo 	rcvdPkFromHL:sum(packetBytes) 	0
attr interpolationmode  none
attr source  packetReceivedFromUpper
attr title  "packets received from higher layer, sum(packetBytes)"
scalar OrionNetwork.host[14].lo0.lo 	passedUpPk:count 	0
attr interpolationmode  none
attr source  packetSentToUpper
attr title  "packets passed to higher layer, count"
scalar OrionNetwork.host[14].lo0.lo 	passedUpPk:sum(packetBytes) 	0
attr interpolationmode  none
attr source  packetSentToUpper
attr title  "packets passed to higher layer, sum(packetBytes)"
scalar OrionNetwork.host[14].lo0.lo 	droppedPkBitError:count 	0
attr interpolationmode  none
attr source  dropPkBitError
attr title  "packets dropped/bit error, count"
scalar OrionNetwork.host[14].lo0.lo 	droppedPkBitError:sum(packetBytes) 	0
attr interpolationmode  none
attr source  dropPkBitError
attr title  "packets dropped/bit error, sum(packetBytes)"
statistic OrionNetwork.host[14].wlan[0].queue 	queueingTime:histogram
field count 9
field mean 0
field stddev 0
field sum 0
field sqrsum 0
field min 0
field max 0
attr interpolationmode  none
attr title  "queueing time, histogram"
bin	-INF	0
bin	-0.5	0
bin	-0.46666666666667	0
bin	-0.43333333333333	0
bin	-0.4	0
bin	-0.36666666666667	0
bin	-0.33333333333333	0
bin	-0.3	0
bin	-0.26666666666667	0
bin	-0.23333333333333	0
bin	-0.2	0
bin	-0.16666666666667	0
bin	-0.13333333333333	0
bin	-0.1	0
bin	-0.066666666666667	0
bin	-0.033333333333333	0
bin	-6.9388939039072e-018	9
bin	0.033333333333333	0
bin	0.066666666666667	0
bin	0.1	0
bin	0.13333333333333	0
bin	0.16666666666667	0
bin	0.2	0
bin	0.23333333333333	0
bin	0.26666666666667	0
bin	0.3	0
bin	0.33333333333333	0
bin	0.36666666666667	0
bin	0.4	0
bin	0.43333333333333	0
bin	0.46666666666667	0
bin	0.5	0
scalar OrionNetwork.host[14].wlan[0].queue 	dropPk:count 	0
attr interpolationmode  none
attr source  dropPkByQueue
attr title  "dropped packets, count"
scalar OrionNetwork.host[14].wlan[0].queue 	dropPk:sum(packetBytes) 	0
attr interpolationmode  none
attr source  dropPkByQueue
attr title  "dropped packets, sum(packetBytes)"
scalar OrionNetwork.host[14].wlan[0].queue 	queueLength:max 	0
attr interpolationmode  sample-hold
attr title  "queue length, max"
scalar OrionNetwork.host[14].wlan[0].queue 	queueLength:timeavg 	0
attr interpolationmode  sample-hold
attr title  "queue length, timeavg"
scalar OrionNetwork.host[14].wlan[0].queue 	rcvdPk:count 	9
attr interpolationmode  none
attr title  "received packets, count"
scalar OrionNetwork.host[14].wlan[0].queue 	rcvdPk:sum(packetBytes) 	432
attr interpolationmode  none
attr title  "received packets, sum(packetBytes)"
scalar OrionNetwork.host[14].wlan[0].mac 	droppedPkNotForUs:count 	4
attr interpolationmode  none
attr source  dropPkNotForUs
attr title  "packets dropped/not for us, count"
scalar OrionNetwork.host[14].wlan[0].mac 	droppedPkNotForUs:sum(packetBytes) 	152
attr interpolationmode  none
attr source  dropPkNotForUs
attr title  "packets dropped/not for us, sum(packetBytes)"
scalar OrionNetwork.host[14].wlan[0].mac 	rcvdPkFromHL:count 	9
attr interpolationmode  none
attr source  packetReceivedFromUpper
attr title  "packets received from higher layer, count"
scalar OrionNetwork.host[14].wlan[0].mac 	rcvdPkFromHL:sum(packetBytes) 	432
attr interpolationmode  none
attr source  packetReceivedFromUpper
attr title  "packets received from higher layer, sum(packetBytes)"
scalar OrionNetwork.host[14].wlan[0].mac 	passedUpPk:count 	31
attr interpolationmode  none
attr source  packetSentToUpper
attr title  "packets passed to higher layer, count"
scalar OrionNetwork.host[14].wlan[0].mac 	passedUpPk:sum(packetBytes) 	1468
attr interpolationmode  none
attr source  packetSentToUpper
attr title  "packets passed to higher layer, sum(packetBytes)"
scalar OrionNetwork.host[14].wlan[0].mac 	rcvdPkFromLL:count 	35
attr interpolationmode  none
attr source  packetReceivedFromLower
attr title  "packets received from lower layer, count"
scalar OrionNetwork.host[14].wlan[0].mac 	rcvdPkFromLL:sum(packetBytes) 	1930
attr interpolationmode  none
attr source  packetReceivedFromLower
attr title  "packets received from lower layer, sum(packetBytes)"
scalar OrionNetwork.host[14].wlan[0].mac 	sentDownPk:count 	9
attr interpolationmode  none
attr source  packetSentToLower
attr title  "packets sent to lower layer, count"
scalar OrionNetwork.host[14].wlan[0].mac 	sentDownPk:sum(packetBytes) 	522
attr interpolationmode  none
attr source  packetSentToLower
attr title  "packets sent to lower layer, sum(packetBytes)"
scalar OrionNetwork.host[14].udpApp[0] 	"packets sent" 	9
scalar OrionNetwork.host[14].udpApp[0] 	"packets received" 	30
scalar OrionNetwork.host[14].udpApp[0] 	sentPk:count 	9
attr interpolationmode  none
attr source  sentPk
attr title  "packets sent, count"
scalar OrionNetwork.host[14].udpApp[0] 	sentPk:sum(packetBytes) 	180
attr interpolationmode  none
attr source  sentPk
attr title  "packets sent, sum(packetBytes)"
scalar OrionNetwork.host[14].udpApp[0] 	rcvdPk:count 	30
attr interpolationmode  none
attr source  rcvdPk
attr title  "packets received, count"
scalar OrionNetwork.host[14].udpApp[0] 	rcvdPk:sum(packetBytes) 	600
attr interpolationmode  none
attr source  rcvdPk
attr title  "packets received, sum(packetBytes)"
statistic OrionNetwork.host[14].udpApp[0] 	rcvdPkLifetime:stats
field count 30
field mean 0.00023771475323333
field stddev 2.7881193240983e-005
field sum 0.007131442597
field sqrsum 1.7177925843032e-006
field min 0.000232327747
field max 0.000385333553
attr interpolationmode  none
attr source  messageAge(rcvdPk)
attr title  "received packet lifetime, stats"
attr unit  s
scalar OrionNetwork.host[14].udp 	droppedPkBadChecksum:count 	0
attr interpolationmode  none
attr title  "packets dropped (checksum error), count"
scalar OrionNetwork.host[14].udp 	droppedPkWrongPort:count 	0
attr interpolationmode  none
attr title  "packets dropped (wrong port), count"
scalar OrionNetwork.host[14].udp 	passedUpPk:count 	30
attr interpolationmode  none
attr title  "packets passed up, count"
scalar OrionNetwork.host[14].udp 	sentPk:count 	9
attr interpolationmode  none
attr source  sentPk
attr title  "packets sent, count"
scalar OrionNetwork.host[14].udp 	sentPk:sum(packetBytes) 	252
attr interpolationmode  none
attr source  sentPk
attr title  "packets sent, sum(packetBytes)"
scalar OrionNetwork.host[14].udp 	rcvdPk:count 	30
attr interpolationmode  none
attr source  rcvdPk
attr title  "packets received, count"
scalar OrionNetwork.host[14].udp 	rcvdPk:sum(packetBytes) 	840
attr interpolationmode  none
attr source  rcvdPk
attr title  "packets received, sum(packetBytes)"
