version 2
run IPv4ModerateFastMobility-0-20141007-09:49:35-19268
attr configname IPv4ModerateFastMobility
attr datetime 20141007-09:49:35
attr experiment IPv4ModerateFastMobility
attr inifile omnetpp.ini
attr iterationvars ""
attr iterationvars2 $repetition=0
attr measurement ""
attr network OrionNetwork
attr processid 19268
attr repetition 0
attr replication #0
attr resultdir results
attr runnumber 0
attr seedset 0

scalar OrionNetwork 	hackForCreateResultsFolder 	0
scalar OrionNetwork.host[0].networkLayer.arp 	initiatedARPResolution:count 	0
attr title  "ARP initiated resolutions, count"
scalar OrionNetwork.host[0].networkLayer.arp 	sentReply:count 	2
attr title  "ARP replies sent, count"
scalar OrionNetwork.host[0].networkLayer.arp 	sentReq:count 	0
attr title  "ARP request sent, count"
scalar OrionNetwork.host[0].networkLayer.arp 	failedARPResolution:count 	0
attr title  "ARP failed resolutions, count"
scalar OrionNetwork.host[0].networkLayer.arp 	completedARPResolution:count 	2
attr title  "ARP completed resolutions, count"
scalar OrionNetwork.host[0].lo0.lo 	rcvdPkFromHL:count 	0
attr interpolationmode  none
attr source  packetReceivedFromUpper
attr title  "packets received from higher layer, count"
scalar OrionNetwork.host[0].lo0.lo 	rcvdPkFromHL:sum(packetBytes) 	0
attr interpolationmode  none
attr source  packetReceivedFromUpper
attr title  "packets received from higher layer, sum(packetBytes)"
scalar OrionNetwork.host[0].lo0.lo 	passedUpPk:count 	0
attr interpolationmode  none
attr source  packetSentToUpper
attr title  "packets passed to higher layer, count"
scalar OrionNetwork.host[0].lo0.lo 	passedUpPk:sum(packetBytes) 	0
attr interpolationmode  none
attr source  packetSentToUpper
attr title  "packets passed to higher layer, sum(packetBytes)"
scalar OrionNetwork.host[0].lo0.lo 	droppedPkBitError:count 	0
attr interpolationmode  none
attr source  dropPkBitError
attr title  "packets dropped/bit error, count"
scalar OrionNetwork.host[0].lo0.lo 	droppedPkBitError:sum(packetBytes) 	0
attr interpolationmode  none
attr source  dropPkBitError
attr title  "packets dropped/bit error, sum(packetBytes)"
statistic OrionNetwork.host[0].wlan[0].queue 	queueingTime:histogram
field count 12
field mean 0
field stddev 0
field sum 0
field sqrsum 0
field min 0
field max 0
attr interpolationmode  none
attr title  "queueing time, histogram"
bin	-INF	0
bin	-0.5	0
bin	-0.46666666666667	0
bin	-0.43333333333333	0
bin	-0.4	0
bin	-0.36666666666667	0
bin	-0.33333333333333	0
bin	-0.3	0
bin	-0.26666666666667	0
bin	-0.23333333333333	0
bin	-0.2	0
bin	-0.16666666666667	0
bin	-0.13333333333333	0
bin	-0.1	0
bin	-0.066666666666667	0
bin	-0.033333333333333	0
bin	-6.9388939039072e-018	12
bin	0.033333333333333	0
bin	0.066666666666667	0
bin	0.1	0
bin	0.13333333333333	0
bin	0.16666666666667	0
bin	0.2	0
bin	0.23333333333333	0
bin	0.26666666666667	0
bin	0.3	0
bin	0.33333333333333	0
bin	0.36666666666667	0
bin	0.4	0
bin	0.43333333333333	0
bin	0.46666666666667	0
bin	0.5	0
scalar OrionNetwork.host[0].wlan[0].queue 	dropPk:count 	0
attr interpolationmode  none
attr source  dropPkByQueue
attr title  "dropped packets, count"
scalar OrionNetwork.host[0].wlan[0].queue 	dropPk:sum(packetBytes) 	0
attr interpolationmode  none
attr source  dropPkByQueue
attr title  "dropped packets, sum(packetBytes)"
scalar OrionNetwork.host[0].wlan[0].queue 	queueLength:max 	0
attr interpolationmode  sample-hold
attr title  "queue length, max"
scalar OrionNetwork.host[0].wlan[0].queue 	queueLength:timeavg 	0
attr interpolationmode  sample-hold
attr title  "queue length, timeavg"
scalar OrionNetwork.host[0].wlan[0].queue 	rcvdPk:count 	12
attr interpolationmode  none
attr title  "received packets, count"
scalar OrionNetwork.host[0].wlan[0].queue 	rcvdPk:sum(packetBytes) 	536
attr interpolationmode  none
attr title  "received packets, sum(packetBytes)"
scalar OrionNetwork.host[0].wlan[0].mac 	droppedPkNotForUs:count 	9
attr interpolationmode  none
attr source  dropPkNotForUs
attr title  "packets dropped/not for us, count"
scalar OrionNetwork.host[0].wlan[0].mac 	droppedPkNotForUs:sum(packetBytes) 	442
attr interpolationmode  none
attr source  dropPkNotForUs
attr title  "packets dropped/not for us, sum(packetBytes)"
scalar OrionNetwork.host[0].wlan[0].mac 	rcvdPkFromHL:count 	12
attr interpolationmode  none
attr source  packetReceivedFromUpper
attr title  "packets received from higher layer, count"
scalar OrionNetwork.host[0].wlan[0].mac 	rcvdPkFromHL:sum(packetBytes) 	536
attr interpolationmode  none
attr source  packetReceivedFromUpper
attr title  "packets received from higher layer, sum(packetBytes)"
scalar OrionNetwork.host[0].wlan[0].mac 	passedUpPk:count 	40
attr interpolationmode  none
attr source  packetSentToUpper
attr title  "packets passed to higher layer, count"
scalar OrionNetwork.host[0].wlan[0].mac 	passedUpPk:sum(packetBytes) 	1780
attr interpolationmode  none
attr source  packetSentToUpper
attr title  "packets passed to higher layer, sum(packetBytes)"
scalar OrionNetwork.host[0].wlan[0].mac 	rcvdPkFromLL:count 	49
attr interpolationmode  none
attr source  packetReceivedFromLower
attr title  "packets received from lower layer, count"
scalar OrionNetwork.host[0].wlan[0].mac 	rcvdPkFromLL:sum(packetBytes) 	2622
attr interpolationmode  none
attr source  packetReceivedFromLower
attr title  "packets received from lower layer, sum(packetBytes)"
scalar OrionNetwork.host[0].wlan[0].mac 	sentDownPk:count 	12
attr interpolationmode  none
attr source  packetSentToLower
attr title  "packets sent to lower layer, count"
scalar OrionNetwork.host[0].wlan[0].mac 	sentDownPk:sum(packetBytes) 	656
attr interpolationmode  none
attr source  packetSentToLower
attr title  "packets sent to lower layer, sum(packetBytes)"
scalar OrionNetwork.host[0].udpApp[0] 	"packets sent" 	10
scalar OrionNetwork.host[0].udpApp[0] 	"packets received" 	38
scalar OrionNetwork.host[0].udpApp[0] 	sentPk:count 	10
attr interpolationmode  none
attr source  sentPk
attr title  "packets sent, count"
scalar OrionNetwork.host[0].udpApp[0] 	sentPk:sum(packetBytes) 	200
attr interpolationmode  none
attr source  sentPk
attr title  "packets sent, sum(packetBytes)"
scalar OrionNetwork.host[0].udpApp[0] 	rcvdPk:count 	38
attr interpolationmode  none
attr source  rcvdPk
attr title  "packets received, count"
scalar OrionNetwork.host[0].udpApp[0] 	rcvdPk:sum(packetBytes) 	660
attr interpolationmode  none
attr source  rcvdPk
attr title  "packets received, sum(packetBytes)"
statistic OrionNetwork.host[0].udpApp[0] 	rcvdPkLifetime:stats
field count 38
field mean 0.00040502046594737
field stddev 0.00050785903511527
field sum 0.015390777706
field sqrsum 1.5776649541061e-005
field min 0.000232115131
field max 0.002519541583
attr interpolationmode  none
attr source  messageAge(rcvdPk)
attr title  "received packet lifetime, stats"
attr unit  s
scalar OrionNetwork.host[0].udp 	droppedPkBadChecksum:count 	0
attr interpolationmode  none
attr title  "packets dropped (checksum error), count"
scalar OrionNetwork.host[0].udp 	droppedPkWrongPort:count 	0
attr interpolationmode  none
attr title  "packets dropped (wrong port), count"
scalar OrionNetwork.host[0].udp 	passedUpPk:count 	38
attr interpolationmode  none
attr title  "packets passed up, count"
scalar OrionNetwork.host[0].udp 	sentPk:count 	10
attr interpolationmode  none
attr source  sentPk
attr title  "packets sent, count"
scalar OrionNetwork.host[0].udp 	sentPk:sum(packetBytes) 	280
attr interpolationmode  none
attr source  sentPk
attr title  "packets sent, sum(packetBytes)"
scalar OrionNetwork.host[0].udp 	rcvdPk:count 	38
attr interpolationmode  none
attr source  rcvdPk
attr title  "packets received, count"
scalar OrionNetwork.host[0].udp 	rcvdPk:sum(packetBytes) 	964
attr interpolationmode  none
attr source  rcvdPk
attr title  "packets received, sum(packetBytes)"
scalar OrionNetwork.host[1].networkLayer.arp 	initiatedARPResolution:count 	2
attr title  "ARP initiated resolutions, count"
scalar OrionNetwork.host[1].networkLayer.arp 	sentReply:count 	0
attr title  "ARP replies sent, count"
scalar OrionNetwork.host[1].networkLayer.arp 	sentReq:count 	4
attr title  "ARP request sent, count"
scalar OrionNetwork.host[1].networkLayer.arp 	failedARPResolution:count 	1
attr title  "ARP failed resolutions, count"
scalar OrionNetwork.host[1].networkLayer.arp 	completedARPResolution:count 	1
attr title  "ARP completed resolutions, count"
scalar OrionNetwork.host[1].lo0.lo 	rcvdPkFromHL:count 	0
attr interpolationmode  none
attr source  packetReceivedFromUpper
attr title  "packets received from higher layer, count"
scalar OrionNetwork.host[1].lo0.lo 	rcvdPkFromHL:sum(packetBytes) 	0
attr interpolationmode  none
attr source  packetReceivedFromUpper
attr title  "packets received from higher layer, sum(packetBytes)"
scalar OrionNetwork.host[1].lo0.lo 	passedUpPk:count 	0
attr interpolationmode  none
attr source  packetSentToUpper
attr title  "packets passed to higher layer, count"
scalar OrionNetwork.host[1].lo0.lo 	passedUpPk:sum(packetBytes) 	0
attr interpolationmode  none
attr source  packetSentToUpper
attr title  "packets passed to higher layer, sum(packetBytes)"
scalar OrionNetwork.host[1].lo0.lo 	droppedPkBitError:count 	0
attr interpolationmode  none
attr source  dropPkBitError
attr title  "packets dropped/bit error, count"
scalar OrionNetwork.host[1].lo0.lo 	droppedPkBitError:sum(packetBytes) 	0
attr interpolationmode  none
attr source  dropPkBitError
attr title  "packets dropped/bit error, sum(packetBytes)"
statistic OrionNetwork.host[1].wlan[0].queue 	queueingTime:histogram
field count 11
field mean 4.2256026272727e-005
field stddev 9.4013900623129e-005
field sum 0.000464816289
field sqrsum 1.0802742442373e-007
field min 0
field max 0.000232816289
attr interpolationmode  none
attr title  "queueing time, histogram"
bin	-INF	0
bin	-0.0001164081445	0
bin	-0.00010088705856667	0
bin	-8.5365972633333e-005	0
bin	-6.98448867e-005	0
bin	-5.4323800766667e-005	0
bin	-3.8802714833333e-005	0
bin	-2.32816289e-005	0
bin	-7.7605429666667e-006	9
bin	7.7605429666667e-006	0
bin	2.32816289e-005	0
bin	3.8802714833333e-005	0
bin	5.4323800766667e-005	0
bin	6.98448867e-005	0
bin	8.5365972633333e-005	0
bin	0.00010088705856667	0
bin	0.0001164081445	0
bin	0.00013192923043333	0
bin	0.00014745031636667	0
bin	0.0001629714023	0
bin	0.00017849248823333	0
bin	0.00019401357416667	0
bin	0.0002095346601	0
bin	0.00022505574603333	2
bin	0.00024057683196667	0
bin	0.0002560979179	0
bin	0.00027161900383333	0
bin	0.00028714008976667	0
bin	0.0003026611757	0
bin	0.00031818226163333	0
bin	0.00033370334756667	0
bin	0.0003492244335	0
scalar OrionNetwork.host[1].wlan[0].queue 	dropPk:count 	0
attr interpolationmode  none
attr source  dropPkByQueue
attr title  "dropped packets, count"
scalar OrionNetwork.host[1].wlan[0].queue 	dropPk:sum(packetBytes) 	0
attr interpolationmode  none
attr source  dropPkByQueue
attr title  "dropped packets, sum(packetBytes)"
scalar OrionNetwork.host[1].wlan[0].queue 	queueLength:max 	1
attr interpolationmode  sample-hold
attr title  "queue length, max"
scalar OrionNetwork.host[1].wlan[0].queue 	queueLength:timeavg 	1.54938763e-005
attr interpolationmode  sample-hold
attr title  "queue length, timeavg"
scalar OrionNetwork.host[1].wlan[0].queue 	rcvdPk:count 	11
attr interpolationmode  none
attr title  "received packets, count"
scalar OrionNetwork.host[1].wlan[0].queue 	rcvdPk:sum(packetBytes) 	428
attr interpolationmode  none
attr title  "received packets, sum(packetBytes)"
scalar OrionNetwork.host[1].wlan[0].mac 	droppedPkNotForUs:count 	25
attr interpolationmode  none
attr source  dropPkNotForUs
attr title  "packets dropped/not for us, count"
scalar OrionNetwork.host[1].wlan[0].mac 	droppedPkNotForUs:sum(packetBytes) 	1210
attr interpolationmode  none
attr source  dropPkNotForUs
attr title  "packets dropped/not for us, sum(packetBytes)"
scalar OrionNetwork.host[1].wlan[0].mac 	rcvdPkFromHL:count 	11
attr interpolationmode  none
attr source  packetReceivedFromUpper
attr title  "packets received from higher layer, count"
scalar OrionNetwork.host[1].wlan[0].mac 	rcvdPkFromHL:sum(packetBytes) 	428
attr interpolationmode  none
attr source  packetReceivedFromUpper
attr title  "packets received from higher layer, sum(packetBytes)"
scalar OrionNetwork.host[1].wlan[0].mac 	passedUpPk:count 	59
attr interpolationmode  none
attr source  packetSentToUpper
attr title  "packets passed to higher layer, count"
scalar OrionNetwork.host[1].wlan[0].mac 	passedUpPk:sum(packetBytes) 	2692
attr interpolationmode  none
attr source  packetSentToUpper
attr title  "packets passed to higher layer, sum(packetBytes)"
scalar OrionNetwork.host[1].wlan[0].mac 	rcvdPkFromLL:count 	84
attr interpolationmode  none
attr source  packetReceivedFromLower
attr title  "packets received from lower layer, count"
scalar OrionNetwork.host[1].wlan[0].mac 	rcvdPkFromLL:sum(packetBytes) 	4492
attr interpolationmode  none
attr source  packetReceivedFromLower
attr title  "packets received from lower layer, sum(packetBytes)"
scalar OrionNetwork.host[1].wlan[0].mac 	sentDownPk:count 	11
attr interpolationmode  none
attr source  packetSentToLower
attr title  "packets sent to lower layer, count"
scalar OrionNetwork.host[1].wlan[0].mac 	sentDownPk:sum(packetBytes) 	538
attr interpolationmode  none
attr source  packetSentToLower
attr title  "packets sent to lower layer, sum(packetBytes)"
scalar OrionNetwork.host[1].udpApp[0] 	"packets sent" 	5
scalar OrionNetwork.host[1].udpApp[0] 	"packets received" 	52
scalar OrionNetwork.host[1].udpApp[0] 	sentPk:count 	7
attr interpolationmode  none
attr source  sentPk
attr title  "packets sent, count"
scalar OrionNetwork.host[1].udpApp[0] 	sentPk:sum(packetBytes) 	120
attr interpolationmode  none
attr source  sentPk
attr title  "packets sent, sum(packetBytes)"
scalar OrionNetwork.host[1].udpApp[0] 	rcvdPk:count 	52
attr interpolationmode  none
attr source  rcvdPk
attr title  "packets received, count"
scalar OrionNetwork.host[1].udpApp[0] 	rcvdPk:sum(packetBytes) 	1040
attr interpolationmode  none
attr source  rcvdPk
attr title  "packets received, sum(packetBytes)"
statistic OrionNetwork.host[1].udpApp[0] 	rcvdPkLifetime:stats
field count 52
field mean 0.00024143844315385
field stddev 6.444054543335e-005
field sum 0.012554799044
field sqrsum 3.2429929139759e-006
field min 0.000232011842
field max 0.000697186545
attr interpolationmode  none
attr source  messageAge(rcvdPk)
attr title  "received packet lifetime, stats"
attr unit  s
scalar OrionNetwork.host[1].udp 	droppedPkBadChecksum:count 	0
attr interpolationmode  none
attr title  "packets dropped (checksum error), count"
scalar OrionNetwork.host[1].udp 	droppedPkWrongPort:count 	0
attr interpolationmode  none
attr title  "packets dropped (wrong port), count"
scalar OrionNetwork.host[1].udp 	passedUpPk:count 	52
attr interpolationmode  none
attr title  "packets passed up, count"
scalar OrionNetwork.host[1].udp 	sentPk:count 	8
attr interpolationmode  none
attr source  sentPk
attr title  "packets sent, count"
scalar OrionNetwork.host[1].udp 	sentPk:sum(packetBytes) 	1208
attr interpolationmode  none
attr source  sentPk
attr title  "packets sent, sum(packetBytes)"
scalar OrionNetwork.host[1].udp 	rcvdPk:count 	52
attr interpolationmode  none
attr source  rcvdPk
attr title  "packets received, count"
scalar OrionNetwork.host[1].udp 	rcvdPk:sum(packetBytes) 	1456
attr interpolationmode  none
attr source  rcvdPk
attr title  "packets received, sum(packetBytes)"
scalar OrionNetwork.host[2].networkLayer.arp 	initiatedARPResolution:count 	0
attr title  "ARP initiated resolutions, count"
scalar OrionNetwork.host[2].networkLayer.arp 	sentReply:count 	0
attr title  "ARP replies sent, count"
scalar OrionNetwork.host[2].networkLayer.arp 	sentReq:count 	0
attr title  "ARP request sent, count"
scalar OrionNetwork.host[2].networkLayer.arp 	failedARPResolution:count 	0
attr title  "ARP failed resolutions, count"
scalar OrionNetwork.host[2].networkLayer.arp 	completedARPResolution:count 	0
attr title  "ARP completed resolutions, count"
scalar OrionNetwork.host[2].lo0.lo 	rcvdPkFromHL:count 	0
attr interpolationmode  none
attr source  packetReceivedFromUpper
attr title  "packets received from higher layer, count"
scalar OrionNetwork.host[2].lo0.lo 	rcvdPkFromHL:sum(packetBytes) 	0
attr interpolationmode  none
attr source  packetReceivedFromUpper
attr title  "packets received from higher layer, sum(packetBytes)"
scalar OrionNetwork.host[2].lo0.lo 	passedUpPk:count 	0
attr interpolationmode  none
attr source  packetSentToUpper
attr title  "packets passed to higher layer, count"
scalar OrionNetwork.host[2].lo0.lo 	passedUpPk:sum(packetBytes) 	0
attr interpolationmode  none
attr source  packetSentToUpper
attr title  "packets passed to higher layer, sum(packetBytes)"
scalar OrionNetwork.host[2].lo0.lo 	droppedPkBitError:count 	0
attr interpolationmode  none
attr source  dropPkBitError
attr title  "packets dropped/bit error, count"
scalar OrionNetwork.host[2].lo0.lo 	droppedPkBitError:sum(packetBytes) 	0
attr interpolationmode  none
attr source  dropPkBitError
attr title  "packets dropped/bit error, sum(packetBytes)"
statistic OrionNetwork.host[2].wlan[0].queue 	queueingTime:histogram
field count 2
field mean 0
field stddev 0
field sum 0
field sqrsum 0
field min 0
field max 0
attr interpolationmode  none
attr title  "queueing time, histogram"
bin	-INF	0
bin	-0.5	0
bin	-0.46666666666667	0
bin	-0.43333333333333	0
bin	-0.4	0
bin	-0.36666666666667	0
bin	-0.33333333333333	0
bin	-0.3	0
bin	-0.26666666666667	0
bin	-0.23333333333333	0
bin	-0.2	0
bin	-0.16666666666667	0
bin	-0.13333333333333	0
bin	-0.1	0
bin	-0.066666666666667	0
bin	-0.033333333333333	0
bin	-6.9388939039072e-018	2
bin	0.033333333333333	0
bin	0.066666666666667	0
bin	0.1	0
bin	0.13333333333333	0
bin	0.16666666666667	0
bin	0.2	0
bin	0.23333333333333	0
bin	0.26666666666667	0
bin	0.3	0
bin	0.33333333333333	0
bin	0.36666666666667	0
bin	0.4	0
bin	0.43333333333333	0
bin	0.46666666666667	0
bin	0.5	0
scalar OrionNetwork.host[2].wlan[0].queue 	dropPk:count 	0
attr interpolationmode  none
attr source  dropPkByQueue
attr title  "dropped packets, count"
scalar OrionNetwork.host[2].wlan[0].queue 	dropPk:sum(packetBytes) 	0
attr interpolationmode  none
attr source  dropPkByQueue
attr title  "dropped packets, sum(packetBytes)"
scalar OrionNetwork.host[2].wlan[0].queue 	queueLength:max 	0
attr interpolationmode  sample-hold
attr title  "queue length, max"
scalar OrionNetwork.host[2].wlan[0].queue 	queueLength:timeavg 	0
attr interpolationmode  sample-hold
attr title  "queue length, timeavg"
scalar OrionNetwork.host[2].wlan[0].queue 	rcvdPk:count 	2
attr interpolationmode  none
attr title  "received packets, count"
scalar OrionNetwork.host[2].wlan[0].queue 	rcvdPk:sum(packetBytes) 	96
attr interpolationmode  none
attr title  "received packets, sum(packetBytes)"
scalar OrionNetwork.host[2].wlan[0].mac 	droppedPkNotForUs:count 	0
attr interpolationmode  none
attr source  dropPkNotForUs
attr title  "packets dropped/not for us, count"
scalar OrionNetwork.host[2].wlan[0].mac 	droppedPkNotForUs:sum(packetBytes) 	0
attr interpolationmode  none
attr source  dropPkNotForUs
attr title  "packets dropped/not for us, sum(packetBytes)"
scalar OrionNetwork.host[2].wlan[0].mac 	rcvdPkFromHL:count 	2
attr interpolationmode  none
attr source  packetReceivedFromUpper
attr title  "packets received from higher layer, count"
scalar OrionNetwork.host[2].wlan[0].mac 	rcvdPkFromHL:sum(packetBytes) 	96
attr interpolationmode  none
attr source  packetReceivedFromUpper
attr title  "packets received from higher layer, sum(packetBytes)"
scalar OrionNetwork.host[2].wlan[0].mac 	passedUpPk:count 	6
attr interpolationmode  none
attr source  packetSentToUpper
attr title  "packets passed to higher layer, count"
scalar OrionNetwork.host[2].wlan[0].mac 	passedUpPk:sum(packetBytes) 	288
attr interpolationmode  none
attr source  packetSentToUpper
attr title  "packets passed to higher layer, sum(packetBytes)"
scalar OrionNetwork.host[2].wlan[0].mac 	rcvdPkFromLL:count 	6
attr interpolationmode  none
attr source  packetReceivedFromLower
attr title  "packets received from lower layer, count"
scalar OrionNetwork.host[2].wlan[0].mac 	rcvdPkFromLL:sum(packetBytes) 	348
attr interpolationmode  none
attr source  packetReceivedFromLower
attr title  "packets received from lower layer, sum(packetBytes)"
scalar OrionNetwork.host[2].wlan[0].mac 	sentDownPk:count 	2
attr interpolationmode  none
attr source  packetSentToLower
attr title  "packets sent to lower layer, count"
scalar OrionNetwork.host[2].wlan[0].mac 	sentDownPk:sum(packetBytes) 	116
attr interpolationmode  none
attr source  packetSentToLower
attr title  "packets sent to lower layer, sum(packetBytes)"
scalar OrionNetwork.host[2].udpApp[0] 	"packets sent" 	2
scalar OrionNetwork.host[2].udpApp[0] 	"packets received" 	6
scalar OrionNetwork.host[2].udpApp[0] 	sentPk:count 	2
attr interpolationmode  none
attr source  sentPk
attr title  "packets sent, count"
scalar OrionNetwork.host[2].udpApp[0] 	sentPk:sum(packetBytes) 	40
attr interpolationmode  none
attr source  sentPk
attr title  "packets sent, sum(packetBytes)"
scalar OrionNetwork.host[2].udpApp[0] 	rcvdPk:count 	6
attr interpolationmode  none
attr source  rcvdPk
attr title  "packets received, count"
scalar OrionNetwork.host[2].udpApp[0] 	rcvdPk:sum(packetBytes) 	120
attr interpolationmode  none
attr source  rcvdPk
attr title  "packets received, sum(packetBytes)"
statistic OrionNetwork.host[2].udpApp[0] 	rcvdPkLifetime:stats
field count 6
field mean 0.00023269952366667
field stddev 1.0576269338445e-007
field sum 0.001396197142
field sqrsum 3.248944658169e-007
field min 0.000232517023
field max 0.000232795444
attr interpolationmode  none
attr source  messageAge(rcvdPk)
attr title  "received packet lifetime, stats"
attr unit  s
scalar OrionNetwork.host[2].udp 	droppedPkBadChecksum:count 	0
attr interpolationmode  none
attr title  "packets dropped (checksum error), count"
scalar OrionNetwork.host[2].udp 	droppedPkWrongPort:count 	0
attr interpolationmode  none
attr title  "packets dropped (wrong port), count"
scalar OrionNetwork.host[2].udp 	passedUpPk:count 	6
attr interpolationmode  none
attr title  "packets passed up, count"
scalar OrionNetwork.host[2].udp 	sentPk:count 	2
attr interpolationmode  none
attr source  sentPk
attr title  "packets sent, count"
scalar OrionNetwork.host[2].udp 	sentPk:sum(packetBytes) 	56
attr interpolationmode  none
attr source  sentPk
attr title  "packets sent, sum(packetBytes)"
scalar OrionNetwork.host[2].udp 	rcvdPk:count 	6
attr interpolationmode  none
attr source  rcvdPk
attr title  "packets received, count"
scalar OrionNetwork.host[2].udp 	rcvdPk:sum(packetBytes) 	168
attr interpolationmode  none
attr source  rcvdPk
attr title  "packets received, sum(packetBytes)"
scalar OrionNetwork.host[3].networkLayer.arp 	initiatedARPResolution:count 	0
attr title  "ARP initiated resolutions, count"
scalar OrionNetwork.host[3].networkLayer.arp 	sentReply:count 	0
attr title  "ARP replies sent, count"
scalar OrionNetwork.host[3].networkLayer.arp 	sentReq:count 	0
attr title  "ARP request sent, count"
scalar OrionNetwork.host[3].networkLayer.arp 	failedARPResolution:count 	0
attr title  "ARP failed resolutions, count"
scalar OrionNetwork.host[3].networkLayer.arp 	completedARPResolution:count 	0
attr title  "ARP completed resolutions, count"
scalar OrionNetwork.host[3].lo0.lo 	rcvdPkFromHL:count 	0
attr interpolationmode  none
attr source  packetReceivedFromUpper
attr title  "packets received from higher layer, count"
scalar OrionNetwork.host[3].lo0.lo 	rcvdPkFromHL:sum(packetBytes) 	0
attr interpolationmode  none
attr source  packetReceivedFromUpper
attr title  "packets received from higher layer, sum(packetBytes)"
scalar OrionNetwork.host[3].lo0.lo 	passedUpPk:count 	0
attr interpolationmode  none
attr source  packetSentToUpper
attr title  "packets passed to higher layer, count"
scalar OrionNetwork.host[3].lo0.lo 	passedUpPk:sum(packetBytes) 	0
attr interpolationmode  none
attr source  packetSentToUpper
attr title  "packets passed to higher layer, sum(packetBytes)"
scalar OrionNetwork.host[3].lo0.lo 	droppedPkBitError:count 	0
attr interpolationmode  none
attr source  dropPkBitError
attr title  "packets dropped/bit error, count"
scalar OrionNetwork.host[3].lo0.lo 	droppedPkBitError:sum(packetBytes) 	0
attr interpolationmode  none
attr source  dropPkBitError
attr title  "packets dropped/bit error, sum(packetBytes)"
statistic OrionNetwork.host[3].wlan[0].queue 	queueingTime:histogram
field count 5
field mean 0
field stddev 0
field sum 0
field sqrsum 0
field min 0
field max 0
attr interpolationmode  none
attr title  "queueing time, histogram"
bin	-INF	0
bin	-0.5	0
bin	-0.46666666666667	0
bin	-0.43333333333333	0
bin	-0.4	0
bin	-0.36666666666667	0
bin	-0.33333333333333	0
bin	-0.3	0
bin	-0.26666666666667	0
bin	-0.23333333333333	0
bin	-0.2	0
bin	-0.16666666666667	0
bin	-0.13333333333333	0
bin	-0.1	0
bin	-0.066666666666667	0
bin	-0.033333333333333	0
bin	-6.9388939039072e-018	5
bin	0.033333333333333	0
bin	0.066666666666667	0
bin	0.1	0
bin	0.13333333333333	0
bin	0.16666666666667	0
bin	0.2	0
bin	0.23333333333333	0
bin	0.26666666666667	0
bin	0.3	0
bin	0.33333333333333	0
bin	0.36666666666667	0
bin	0.4	0
bin	0.43333333333333	0
bin	0.46666666666667	0
bin	0.5	0
scalar OrionNetwork.host[3].wlan[0].queue 	dropPk:count 	0
attr interpolationmode  none
attr source  dropPkByQueue
attr title  "dropped packets, count"
scalar OrionNetwork.host[3].wlan[0].queue 	dropPk:sum(packetBytes) 	0
attr interpolationmode  none
attr source  dropPkByQueue
attr title  "dropped packets, sum(packetBytes)"
scalar OrionNetwork.host[3].wlan[0].queue 	queueLength:max 	0
attr interpolationmode  sample-hold
attr title  "queue length, max"
scalar OrionNetwork.host[3].wlan[0].queue 	queueLength:timeavg 	0
attr interpolationmode  sample-hold
attr title  "queue length, timeavg"
scalar OrionNetwork.host[3].wlan[0].queue 	rcvdPk:count 	5
attr interpolationmode  none
attr title  "received packets, count"
scalar OrionNetwork.host[3].wlan[0].queue 	rcvdPk:sum(packetBytes) 	240
attr interpolationmode  none
attr title  "received packets, sum(packetBytes)"
scalar OrionNetwork.host[3].wlan[0].mac 	droppedPkNotForUs:count 	16
attr interpolationmode  none
attr source  dropPkNotForUs
attr title  "packets dropped/not for us, count"
scalar OrionNetwork.host[3].wlan[0].mac 	droppedPkNotForUs:sum(packetBytes) 	768
attr interpolationmode  none
attr source  dropPkNotForUs
attr title  "packets dropped/not for us, sum(packetBytes)"
scalar OrionNetwork.host[3].wlan[0].mac 	rcvdPkFromHL:count 	5
attr interpolationmode  none
attr source  packetReceivedFromUpper
attr title  "packets received from higher layer, count"
scalar OrionNetwork.host[3].wlan[0].mac 	rcvdPkFromHL:sum(packetBytes) 	240
attr interpolationmode  none
attr source  packetReceivedFromUpper
attr title  "packets received from higher layer, sum(packetBytes)"
scalar OrionNetwork.host[3].wlan[0].mac 	passedUpPk:count 	27
attr interpolationmode  none
attr source  packetSentToUpper
attr title  "packets passed to higher layer, count"
scalar OrionNetwork.host[3].wlan[0].mac 	passedUpPk:sum(packetBytes) 	1236
attr interpolationmode  none
attr source  packetSentToUpper
attr title  "packets passed to higher layer, sum(packetBytes)"
scalar OrionNetwork.host[3].wlan[0].mac 	rcvdPkFromLL:count 	43
attr interpolationmode  none
attr source  packetReceivedFromLower
attr title  "packets received from lower layer, count"
scalar OrionNetwork.host[3].wlan[0].mac 	rcvdPkFromLL:sum(packetBytes) 	2274
attr interpolationmode  none
attr source  packetReceivedFromLower
attr title  "packets received from lower layer, sum(packetBytes)"
scalar OrionNetwork.host[3].wlan[0].mac 	sentDownPk:count 	5
attr interpolationmode  none
attr source  packetSentToLower
attr title  "packets sent to lower layer, count"
scalar OrionNetwork.host[3].wlan[0].mac 	sentDownPk:sum(packetBytes) 	290
attr interpolationmode  none
attr source  packetSentToLower
attr title  "packets sent to lower layer, sum(packetBytes)"
scalar OrionNetwork.host[3].udpApp[0] 	"packets sent" 	5
scalar OrionNetwork.host[3].udpApp[0] 	"packets received" 	24
scalar OrionNetwork.host[3].udpApp[0] 	sentPk:count 	5
attr interpolationmode  none
attr source  sentPk
attr title  "packets sent, count"
scalar OrionNetwork.host[3].udpApp[0] 	sentPk:sum(packetBytes) 	100
attr interpolationmode  none
attr source  sentPk
attr title  "packets sent, sum(packetBytes)"
scalar OrionNetwork.host[3].udpApp[0] 	rcvdPk:count 	24
attr interpolationmode  none
attr source  rcvdPk
attr title  "packets received, count"
scalar OrionNetwork.host[3].udpApp[0] 	rcvdPk:sum(packetBytes) 	480
attr interpolationmode  none
attr source  rcvdPk
attr title  "packets received, sum(packetBytes)"
statistic OrionNetwork.host[3].udpApp[0] 	rcvdPkLifetime:stats
field count 24
field mean 0.00023252384516667
field stddev 2.0346489646736e-007
field sum 0.005580572284
field sqrsum 1.2976170778594e-006
field min 0.000232155297
field max 0.000232829923
attr interpolationmode  none
attr source  messageAge(rcvdPk)
attr title  "received packet lifetime, stats"
attr unit  s
scalar OrionNetwork.host[3].udp 	droppedPkBadChecksum:count 	0
attr interpolationmode  none
attr title  "packets dropped (checksum error), count"
scalar OrionNetwork.host[3].udp 	droppedPkWrongPort:count 	0
attr interpolationmode  none
attr title  "packets dropped (wrong port), count"
scalar OrionNetwork.host[3].udp 	passedUpPk:count 	24
attr interpolationmode  none
attr title  "packets passed up, count"
scalar OrionNetwork.host[3].udp 	sentPk:count 	5
attr interpolationmode  none
attr source  sentPk
attr title  "packets sent, count"
scalar OrionNetwork.host[3].udp 	sentPk:sum(packetBytes) 	140
attr interpolationmode  none
attr source  sentPk
attr title  "packets sent, sum(packetBytes)"
scalar OrionNetwork.host[3].udp 	rcvdPk:count 	24
attr interpolationmode  none
attr source  rcvdPk
attr title  "packets received, count"
scalar OrionNetwork.host[3].udp 	rcvdPk:sum(packetBytes) 	672
attr interpolationmode  none
attr source  rcvdPk
attr title  "packets received, sum(packetBytes)"
scalar OrionNetwork.host[4].networkLayer.arp 	initiatedARPResolution:count 	2
attr title  "ARP initiated resolutions, count"
scalar OrionNetwork.host[4].networkLayer.arp 	sentReply:count 	0
attr title  "ARP replies sent, count"
scalar OrionNetwork.host[4].networkLayer.arp 	sentReq:count 	4
attr title  "ARP request sent, count"
scalar OrionNetwork.host[4].networkLayer.arp 	failedARPResolution:count 	1
attr title  "ARP failed resolutions, count"
scalar OrionNetwork.host[4].networkLayer.arp 	completedARPResolution:count 	2
attr title  "ARP completed resolutions, count"
scalar OrionNetwork.host[4].lo0.lo 	rcvdPkFromHL:count 	0
attr interpolationmode  none
attr source  packetReceivedFromUpper
attr title  "packets received from higher layer, count"
scalar OrionNetwork.host[4].lo0.lo 	rcvdPkFromHL:sum(packetBytes) 	0
attr interpolationmode  none
attr source  packetReceivedFromUpper
attr title  "packets received from higher layer, sum(packetBytes)"
scalar OrionNetwork.host[4].lo0.lo 	passedUpPk:count 	0
attr interpolationmode  none
attr source  packetSentToUpper
attr title  "packets passed to higher layer, count"
scalar OrionNetwork.host[4].lo0.lo 	passedUpPk:sum(packetBytes) 	0
attr interpolationmode  none
attr source  packetSentToUpper
attr title  "packets passed to higher layer, sum(packetBytes)"
scalar OrionNetwork.host[4].lo0.lo 	droppedPkBitError:count 	0
attr interpolationmode  none
attr source  dropPkBitError
attr title  "packets dropped/bit error, count"
scalar OrionNetwork.host[4].lo0.lo 	droppedPkBitError:sum(packetBytes) 	0
attr interpolationmode  none
attr source  dropPkBitError
attr title  "packets dropped/bit error, sum(packetBytes)"
statistic OrionNetwork.host[4].wlan[0].queue 	queueingTime:histogram
field count 11
field mean 4.2238449909091e-005
field stddev 9.3974721730637e-005
field sum 0.000464622949
field sqrsum 1.0793743640146e-007
field min 0
field max 0.000232622949
attr interpolationmode  none
attr title  "queueing time, histogram"
bin	-INF	0
bin	-0.0001163114745	0
bin	-0.0001008032779	0
bin	-8.52950813e-005	0
bin	-6.97868847e-005	0
bin	-5.42786881e-005	0
bin	-3.87704915e-005	0
bin	-2.32622949e-005	0
bin	-7.7540983e-006	9
bin	7.7540983e-006	0
bin	2.32622949e-005	0
bin	3.87704915e-005	0
bin	5.42786881e-005	0
bin	6.97868847e-005	0
bin	8.52950813e-005	0
bin	0.0001008032779	0
bin	0.0001163114745	0
bin	0.0001318196711	0
bin	0.0001473278677	0
bin	0.0001628360643	0
bin	0.0001783442609	0
bin	0.0001938524575	0
bin	0.0002093606541	0
bin	0.0002248688507	2
bin	0.0002403770473	0
bin	0.0002558852439	0
bin	0.0002713934405	0
bin	0.0002869016371	0
bin	0.0003024098337	0
bin	0.0003179180303	0
bin	0.0003334262269	0
bin	0.0003489344235	0
scalar OrionNetwork.host[4].wlan[0].queue 	dropPk:count 	0
attr interpolationmode  none
attr source  dropPkByQueue
attr title  "dropped packets, count"
scalar OrionNetwork.host[4].wlan[0].queue 	dropPk:sum(packetBytes) 	0
attr interpolationmode  none
attr source  dropPkByQueue
attr title  "dropped packets, sum(packetBytes)"
scalar OrionNetwork.host[4].wlan[0].queue 	queueLength:max 	1
attr interpolationmode  sample-hold
attr title  "queue length, max"
scalar OrionNetwork.host[4].wlan[0].queue 	queueLength:timeavg 	1.5487431633333e-005
attr interpolationmode  sample-hold
attr title  "queue length, timeavg"
scalar OrionNetwork.host[4].wlan[0].queue 	rcvdPk:count 	11
attr interpolationmode  none
attr title  "received packets, count"
scalar OrionNetwork.host[4].wlan[0].queue 	rcvdPk:sum(packetBytes) 	428
attr interpolationmode  none
attr title  "received packets, sum(packetBytes)"
scalar OrionNetwork.host[4].wlan[0].mac 	droppedPkNotForUs:count 	10
attr interpolationmode  none
attr source  dropPkNotForUs
attr title  "packets dropped/not for us, count"
scalar OrionNetwork.host[4].wlan[0].mac 	droppedPkNotForUs:sum(packetBytes) 	480
attr interpolationmode  none
attr source  dropPkNotForUs
attr title  "packets dropped/not for us, sum(packetBytes)"
scalar OrionNetwork.host[4].wlan[0].mac 	rcvdPkFromHL:count 	11
attr interpolationmode  none
attr source  packetReceivedFromUpper
attr title  "packets received from higher layer, count"
scalar OrionNetwork.host[4].wlan[0].mac 	rcvdPkFromHL:sum(packetBytes) 	428
attr interpolationmode  none
attr source  packetReceivedFromUpper
attr title  "packets received from higher layer, sum(packetBytes)"
scalar OrionNetwork.host[4].wlan[0].mac 	passedUpPk:count 	34
attr interpolationmode  none
attr source  packetSentToUpper
attr title  "packets passed to higher layer, count"
scalar OrionNetwork.host[4].wlan[0].mac 	passedUpPk:sum(packetBytes) 	1412
attr interpolationmode  none
attr source  packetSentToUpper
attr title  "packets passed to higher layer, sum(packetBytes)"
scalar OrionNetwork.host[4].wlan[0].mac 	rcvdPkFromLL:count 	44
attr interpolationmode  none
attr source  packetReceivedFromLower
attr title  "packets received from lower layer, count"
scalar OrionNetwork.host[4].wlan[0].mac 	rcvdPkFromLL:sum(packetBytes) 	2232
attr interpolationmode  none
attr source  packetReceivedFromLower
attr title  "packets received from lower layer, sum(packetBytes)"
scalar OrionNetwork.host[4].wlan[0].mac 	sentDownPk:count 	11
attr interpolationmode  none
attr source  packetSentToLower
attr title  "packets sent to lower layer, count"
scalar OrionNetwork.host[4].wlan[0].mac 	sentDownPk:sum(packetBytes) 	538
attr interpolationmode  none
attr source  packetSentToLower
attr title  "packets sent to lower layer, sum(packetBytes)"
scalar OrionNetwork.host[4].udpApp[0] 	"packets sent" 	5
scalar OrionNetwork.host[4].udpApp[0] 	"packets received" 	23
scalar OrionNetwork.host[4].udpApp[0] 	sentPk:count 	7
attr interpolationmode  none
attr source  sentPk
attr title  "packets sent, count"
scalar OrionNetwork.host[4].udpApp[0] 	sentPk:sum(packetBytes) 	120
attr interpolationmode  none
attr source  sentPk
attr title  "packets sent, sum(packetBytes)"
scalar OrionNetwork.host[4].udpApp[0] 	rcvdPk:count 	23
attr interpolationmode  none
attr source  rcvdPk
attr title  "packets received, count"
scalar OrionNetwork.host[4].udpApp[0] 	rcvdPk:sum(packetBytes) 	460
attr interpolationmode  none
attr source  rcvdPk
attr title  "packets received, sum(packetBytes)"
statistic OrionNetwork.host[4].udpApp[0] 	rcvdPkLifetime:stats
field count 23
field mean 0.00031322069491304
field stddev 0.00038792696362765
field sum 0.007204075983
field sqrsum 5.5671869260077e-006
field min 0.000232033112
field max 0.002092764361
attr interpolationmode  none
attr source  messageAge(rcvdPk)
attr title  "received packet lifetime, stats"
attr unit  s
scalar OrionNetwork.host[4].udp 	droppedPkBadChecksum:count 	0
attr interpolationmode  none
attr title  "packets dropped (checksum error), count"
scalar OrionNetwork.host[4].udp 	droppedPkWrongPort:count 	0
attr interpolationmode  none
attr title  "packets dropped (wrong port), count"
scalar OrionNetwork.host[4].udp 	passedUpPk:count 	23
attr interpolationmode  none
attr title  "packets passed up, count"
scalar OrionNetwork.host[4].udp 	sentPk:count 	8
attr interpolationmode  none
attr source  sentPk
attr title  "packets sent, count"
scalar OrionNetwork.host[4].udp 	sentPk:sum(packetBytes) 	1208
attr interpolationmode  none
attr source  sentPk
attr title  "packets sent, sum(packetBytes)"
scalar OrionNetwork.host[4].udp 	rcvdPk:count 	23
attr interpolationmode  none
attr source  rcvdPk
attr title  "packets received, count"
scalar OrionNetwork.host[4].udp 	rcvdPk:sum(packetBytes) 	644
attr interpolationmode  none
attr source  rcvdPk
attr title  "packets received, sum(packetBytes)"
scalar OrionNetwork.host[5].networkLayer.arp 	initiatedARPResolution:count 	0
attr title  "ARP initiated resolutions, count"
scalar OrionNetwork.host[5].networkLayer.arp 	sentReply:count 	0
attr title  "ARP replies sent, count"
scalar OrionNetwork.host[5].networkLayer.arp 	sentReq:count 	0
attr title  "ARP request sent, count"
scalar OrionNetwork.host[5].networkLayer.arp 	failedARPResolution:count 	0
attr title  "ARP failed resolutions, count"
scalar OrionNetwork.host[5].networkLayer.arp 	completedARPResolution:count 	0
attr title  "ARP completed resolutions, count"
scalar OrionNetwork.host[5].lo0.lo 	rcvdPkFromHL:count 	0
attr interpolationmode  none
attr source  packetReceivedFromUpper
attr title  "packets received from higher layer, count"
scalar OrionNetwork.host[5].lo0.lo 	rcvdPkFromHL:sum(packetBytes) 	0
attr interpolationmode  none
attr source  packetReceivedFromUpper
attr title  "packets received from higher layer, sum(packetBytes)"
scalar OrionNetwork.host[5].lo0.lo 	passedUpPk:count 	0
attr interpolationmode  none
attr source  packetSentToUpper
attr title  "packets passed to higher layer, count"
scalar OrionNetwork.host[5].lo0.lo 	passedUpPk:sum(packetBytes) 	0
attr interpolationmode  none
attr source  packetSentToUpper
attr title  "packets passed to higher layer, sum(packetBytes)"
scalar OrionNetwork.host[5].lo0.lo 	droppedPkBitError:count 	0
attr interpolationmode  none
attr source  dropPkBitError
attr title  "packets dropped/bit error, count"
scalar OrionNetwork.host[5].lo0.lo 	droppedPkBitError:sum(packetBytes) 	0
attr interpolationmode  none
attr source  dropPkBitError
attr title  "packets dropped/bit error, sum(packetBytes)"
statistic OrionNetwork.host[5].wlan[0].queue 	queueingTime:histogram
field count 5
field mean 0
field stddev 0
field sum 0
field sqrsum 0
field min 0
field max 0
attr interpolationmode  none
attr title  "queueing time, histogram"
bin	-INF	0
bin	-0.5	0
bin	-0.46666666666667	0
bin	-0.43333333333333	0
bin	-0.4	0
bin	-0.36666666666667	0
bin	-0.33333333333333	0
bin	-0.3	0
bin	-0.26666666666667	0
bin	-0.23333333333333	0
bin	-0.2	0
bin	-0.16666666666667	0
bin	-0.13333333333333	0
bin	-0.1	0
bin	-0.066666666666667	0
bin	-0.033333333333333	0
bin	-6.9388939039072e-018	5
bin	0.033333333333333	0
bin	0.066666666666667	0
bin	0.1	0
bin	0.13333333333333	0
bin	0.16666666666667	0
bin	0.2	0
bin	0.23333333333333	0
bin	0.26666666666667	0
bin	0.3	0
bin	0.33333333333333	0
bin	0.36666666666667	0
bin	0.4	0
bin	0.43333333333333	0
bin	0.46666666666667	0
bin	0.5	0
scalar OrionNetwork.host[5].wlan[0].queue 	dropPk:count 	0
attr interpolationmode  none
attr source  dropPkByQueue
attr title  "dropped packets, count"
scalar OrionNetwork.host[5].wlan[0].queue 	dropPk:sum(packetBytes) 	0
attr interpolationmode  none
attr source  dropPkByQueue
attr title  "dropped packets, sum(packetBytes)"
scalar OrionNetwork.host[5].wlan[0].queue 	queueLength:max 	0
attr interpolationmode  sample-hold
attr title  "queue length, max"
scalar OrionNetwork.host[5].wlan[0].queue 	queueLength:timeavg 	0
attr interpolationmode  sample-hold
attr title  "queue length, timeavg"
scalar OrionNetwork.host[5].wlan[0].queue 	rcvdPk:count 	5
attr interpolationmode  none
attr title  "received packets, count"
scalar OrionNetwork.host[5].wlan[0].queue 	rcvdPk:sum(packetBytes) 	240
attr interpolationmode  none
attr title  "received packets, sum(packetBytes)"
scalar OrionNetwork.host[5].wlan[0].mac 	droppedPkNotForUs:count 	2
attr interpolationmode  none
attr source  dropPkNotForUs
attr title  "packets dropped/not for us, count"
scalar OrionNetwork.host[5].wlan[0].mac 	droppedPkNotForUs:sum(packetBytes) 	96
attr interpolationmode  none
attr source  dropPkNotForUs
attr title  "packets dropped/not for us, sum(packetBytes)"
scalar OrionNetwork.host[5].wlan[0].mac 	rcvdPkFromHL:count 	5
attr interpolationmode  none
attr source  packetReceivedFromUpper
attr title  "packets received from higher layer, count"
scalar OrionNetwork.host[5].wlan[0].mac 	rcvdPkFromHL:sum(packetBytes) 	240
attr interpolationmode  none
attr source  packetReceivedFromUpper
attr title  "packets received from higher layer, sum(packetBytes)"
scalar OrionNetwork.host[5].wlan[0].mac 	passedUpPk:count 	26
attr interpolationmode  none
attr source  packetSentToUpper
attr title  "packets passed to higher layer, count"
scalar OrionNetwork.host[5].wlan[0].mac 	passedUpPk:sum(packetBytes) 	1168
attr interpolationmode  none
attr source  packetSentToUpper
attr title  "packets passed to higher layer, sum(packetBytes)"
scalar OrionNetwork.host[5].wlan[0].mac 	rcvdPkFromLL:count 	28
attr interpolationmode  none
attr source  packetReceivedFromLower
attr title  "packets received from lower layer, count"
scalar OrionNetwork.host[5].wlan[0].mac 	rcvdPkFromLL:sum(packetBytes) 	1524
attr interpolationmode  none
attr source  packetReceivedFromLower
attr title  "packets received from lower layer, sum(packetBytes)"
scalar OrionNetwork.host[5].wlan[0].mac 	sentDownPk:count 	5
attr interpolationmode  none
attr source  packetSentToLower
attr title  "packets sent to lower layer, count"
scalar OrionNetwork.host[5].wlan[0].mac 	sentDownPk:sum(packetBytes) 	290
attr interpolationmode  none
attr source  packetSentToLower
attr title  "packets sent to lower layer, sum(packetBytes)"
scalar OrionNetwork.host[5].udpApp[0] 	"packets sent" 	5
scalar OrionNetwork.host[5].udpApp[0] 	"packets received" 	22
scalar OrionNetwork.host[5].udpApp[0] 	sentPk:count 	5
attr interpolationmode  none
attr source  sentPk
attr title  "packets sent, count"
scalar OrionNetwork.host[5].udpApp[0] 	sentPk:sum(packetBytes) 	100
attr interpolationmode  none
attr source  sentPk
attr title  "packets sent, sum(packetBytes)"
scalar OrionNetwork.host[5].udpApp[0] 	rcvdPk:count 	22
attr interpolationmode  none
attr source  rcvdPk
attr title  "packets received, count"
scalar OrionNetwork.host[5].udpApp[0] 	rcvdPk:sum(packetBytes) 	440
attr interpolationmode  none
attr source  rcvdPk
attr title  "packets received, sum(packetBytes)"
statistic OrionNetwork.host[5].udpApp[0] 	rcvdPkLifetime:stats
field count 22
field mean 0.00023258970140909
field stddev 1.4834223417421e-007
field sum 0.005116973431
field sqrsum 1.1901557845483e-006
field min 0.000232272874
field max 0.000232823679
attr interpolationmode  none
attr source  messageAge(rcvdPk)
attr title  "received packet lifetime, stats"
attr unit  s
scalar OrionNetwork.host[5].udp 	droppedPkBadChecksum:count 	0
attr interpolationmode  none
attr title  "packets dropped (checksum error), count"
scalar OrionNetwork.host[5].udp 	droppedPkWrongPort:count 	0
attr interpolationmode  none
attr title  "packets dropped (wrong port), count"
scalar OrionNetwork.host[5].udp 	passedUpPk:count 	22
attr interpolationmode  none
attr title  "packets passed up, count"
scalar OrionNetwork.host[5].udp 	sentPk:count 	5
attr interpolationmode  none
attr source  sentPk
attr title  "packets sent, count"
scalar OrionNetwork.host[5].udp 	sentPk:sum(packetBytes) 	140
attr interpolationmode  none
attr source  sentPk
attr title  "packets sent, sum(packetBytes)"
scalar OrionNetwork.host[5].udp 	rcvdPk:count 	22
attr interpolationmode  none
attr source  rcvdPk
attr title  "packets received, count"
scalar OrionNetwork.host[5].udp 	rcvdPk:sum(packetBytes) 	616
attr interpolationmode  none
attr source  rcvdPk
attr title  "packets received, sum(packetBytes)"
scalar OrionNetwork.host[6].networkLayer.arp 	initiatedARPResolution:count 	0
attr title  "ARP initiated resolutions, count"
scalar OrionNetwork.host[6].networkLayer.arp 	sentReply:count 	0
attr title  "ARP replies sent, count"
scalar OrionNetwork.host[6].networkLayer.arp 	sentReq:count 	0
attr title  "ARP request sent, count"
scalar OrionNetwork.host[6].networkLayer.arp 	failedARPResolution:count 	0
attr title  "ARP failed resolutions, count"
scalar OrionNetwork.host[6].networkLayer.arp 	completedARPResolution:count 	0
attr title  "ARP completed resolutions, count"
scalar OrionNetwork.host[6].lo0.lo 	rcvdPkFromHL:count 	0
attr interpolationmode  none
attr source  packetReceivedFromUpper
attr title  "packets received from higher layer, count"
scalar OrionNetwork.host[6].lo0.lo 	rcvdPkFromHL:sum(packetBytes) 	0
attr interpolationmode  none
attr source  packetReceivedFromUpper
attr title  "packets received from higher layer, sum(packetBytes)"
scalar OrionNetwork.host[6].lo0.lo 	passedUpPk:count 	0
attr interpolationmode  none
attr source  packetSentToUpper
attr title  "packets passed to higher layer, count"
scalar OrionNetwork.host[6].lo0.lo 	passedUpPk:sum(packetBytes) 	0
attr interpolationmode  none
attr source  packetSentToUpper
attr title  "packets passed to higher layer, sum(packetBytes)"
scalar OrionNetwork.host[6].lo0.lo 	droppedPkBitError:count 	0
attr interpolationmode  none
attr source  dropPkBitError
attr title  "packets dropped/bit error, count"
scalar OrionNetwork.host[6].lo0.lo 	droppedPkBitError:sum(packetBytes) 	0
attr interpolationmode  none
attr source  dropPkBitError
attr title  "packets dropped/bit error, sum(packetBytes)"
statistic OrionNetwork.host[6].wlan[0].queue 	queueingTime:histogram
field count 5
field mean 0
field stddev 0
field sum 0
field sqrsum 0
field min 0
field max 0
attr interpolationmode  none
attr title  "queueing time, histogram"
bin	-INF	0
bin	-0.5	0
bin	-0.46666666666667	0
bin	-0.43333333333333	0
bin	-0.4	0
bin	-0.36666666666667	0
bin	-0.33333333333333	0
bin	-0.3	0
bin	-0.26666666666667	0
bin	-0.23333333333333	0
bin	-0.2	0
bin	-0.16666666666667	0
bin	-0.13333333333333	0
bin	-0.1	0
bin	-0.066666666666667	0
bin	-0.033333333333333	0
bin	-6.9388939039072e-018	5
bin	0.033333333333333	0
bin	0.066666666666667	0
bin	0.1	0
bin	0.13333333333333	0
bin	0.16666666666667	0
bin	0.2	0
bin	0.23333333333333	0
bin	0.26666666666667	0
bin	0.3	0
bin	0.33333333333333	0
bin	0.36666666666667	0
bin	0.4	0
bin	0.43333333333333	0
bin	0.46666666666667	0
bin	0.5	0
scalar OrionNetwork.host[6].wlan[0].queue 	dropPk:count 	0
attr interpolationmode  none
attr source  dropPkByQueue
attr title  "dropped packets, count"
scalar OrionNetwork.host[6].wlan[0].queue 	dropPk:sum(packetBytes) 	0
attr interpolationmode  none
attr source  dropPkByQueue
attr title  "dropped packets, sum(packetBytes)"
scalar OrionNetwork.host[6].wlan[0].queue 	queueLength:max 	0
attr interpolationmode  sample-hold
attr title  "queue length, max"
scalar OrionNetwork.host[6].wlan[0].queue 	queueLength:timeavg 	0
attr interpolationmode  sample-hold
attr title  "queue length, timeavg"
scalar OrionNetwork.host[6].wlan[0].queue 	rcvdPk:count 	5
attr interpolationmode  none
attr title  "received packets, count"
scalar OrionNetwork.host[6].wlan[0].queue 	rcvdPk:sum(packetBytes) 	240
attr interpolationmode  none
attr title  "received packets, sum(packetBytes)"
scalar OrionNetwork.host[6].wlan[0].mac 	droppedPkNotForUs:count 	12
attr interpolationmode  none
attr source  dropPkNotForUs
attr title  "packets dropped/not for us, count"
scalar OrionNetwork.host[6].wlan[0].mac 	droppedPkNotForUs:sum(packetBytes) 	576
attr interpolationmode  none
attr source  dropPkNotForUs
attr title  "packets dropped/not for us, sum(packetBytes)"
scalar OrionNetwork.host[6].wlan[0].mac 	rcvdPkFromHL:count 	5
attr interpolationmode  none
attr source  packetReceivedFromUpper
attr title  "packets received from higher layer, count"
scalar OrionNetwork.host[6].wlan[0].mac 	rcvdPkFromHL:sum(packetBytes) 	240
attr interpolationmode  none
attr source  packetReceivedFromUpper
attr title  "packets received from higher layer, sum(packetBytes)"
scalar OrionNetwork.host[6].wlan[0].mac 	passedUpPk:count 	50
attr interpolationmode  none
attr source  packetSentToUpper
attr title  "packets passed to higher layer, count"
scalar OrionNetwork.host[6].wlan[0].mac 	passedUpPk:sum(packetBytes) 	2220
attr interpolationmode  none
attr source  packetSentToUpper
attr title  "packets passed to higher layer, sum(packetBytes)"
scalar OrionNetwork.host[6].wlan[0].mac 	rcvdPkFromLL:count 	62
attr interpolationmode  none
attr source  packetReceivedFromLower
attr title  "packets received from lower layer, count"
scalar OrionNetwork.host[6].wlan[0].mac 	rcvdPkFromLL:sum(packetBytes) 	3296
attr interpolationmode  none
attr source  packetReceivedFromLower
attr title  "packets received from lower layer, sum(packetBytes)"
scalar OrionNetwork.host[6].wlan[0].mac 	sentDownPk:count 	5
attr interpolationmode  none
attr source  packetSentToLower
attr title  "packets sent to lower layer, count"
scalar OrionNetwork.host[6].wlan[0].mac 	sentDownPk:sum(packetBytes) 	290
attr interpolationmode  none
attr source  packetSentToLower
attr title  "packets sent to lower layer, sum(packetBytes)"
scalar OrionNetwork.host[6].udpApp[0] 	"packets sent" 	5
scalar OrionNetwork.host[6].udpApp[0] 	"packets received" 	41
scalar OrionNetwork.host[6].udpApp[0] 	sentPk:count 	5
attr interpolationmode  none
attr source  sentPk
attr title  "packets sent, count"
scalar OrionNetwork.host[6].udpApp[0] 	sentPk:sum(packetBytes) 	100
attr interpolationmode  none
attr source  sentPk
attr title  "packets sent, sum(packetBytes)"
scalar OrionNetwork.host[6].udpApp[0] 	rcvdPk:count 	41
attr interpolationmode  none
attr source  rcvdPk
attr title  "packets received, count"
scalar OrionNetwork.host[6].udpApp[0] 	rcvdPk:sum(packetBytes) 	820
attr interpolationmode  none
attr source  rcvdPk
attr title  "packets received, sum(packetBytes)"
statistic OrionNetwork.host[6].udpApp[0] 	rcvdPkLifetime:stats
field count 41
field mean 0.00023253695804878
field stddev 1.6893251003969e-007
field sum 0.00953401528
field sqrsum 2.2170120527295e-006
field min 0.000232131759
field max 0.000232826964
attr interpolationmode  none
attr source  messageAge(rcvdPk)
attr title  "received packet lifetime, stats"
attr unit  s
scalar OrionNetwork.host[6].udp 	droppedPkBadChecksum:count 	0
attr interpolationmode  none
attr title  "packets dropped (checksum error), count"
scalar OrionNetwork.host[6].udp 	droppedPkWrongPort:count 	0
attr interpolationmode  none
attr title  "packets dropped (wrong port), count"
scalar OrionNetwork.host[6].udp 	passedUpPk:count 	41
attr interpolationmode  none
attr title  "packets passed up, count"
scalar OrionNetwork.host[6].udp 	sentPk:count 	5
attr interpolationmode  none
attr source  sentPk
attr title  "packets sent, count"
scalar OrionNetwork.host[6].udp 	sentPk:sum(packetBytes) 	140
attr interpolationmode  none
attr source  sentPk
attr title  "packets sent, sum(packetBytes)"
scalar OrionNetwork.host[6].udp 	rcvdPk:count 	41
attr interpolationmode  none
attr source  rcvdPk
attr title  "packets received, count"
scalar OrionNetwork.host[6].udp 	rcvdPk:sum(packetBytes) 	1148
attr interpolationmode  none
attr source  rcvdPk
attr title  "packets received, sum(packetBytes)"
scalar OrionNetwork.host[7].networkLayer.arp 	initiatedARPResolution:count 	2
attr title  "ARP initiated resolutions, count"
scalar OrionNetwork.host[7].networkLayer.arp 	sentReply:count 	2
attr title  "ARP replies sent, count"
scalar OrionNetwork.host[7].networkLayer.arp 	sentReq:count 	2
attr title  "ARP request sent, count"
scalar OrionNetwork.host[7].networkLayer.arp 	failedARPResolution:count 	0
attr title  "ARP failed resolutions, count"
scalar OrionNetwork.host[7].networkLayer.arp 	completedARPResolution:count 	6
attr title  "ARP completed resolutions, count"
scalar OrionNetwork.host[7].lo0.lo 	rcvdPkFromHL:count 	0
attr interpolationmode  none
attr source  packetReceivedFromUpper
attr title  "packets received from higher layer, count"
scalar OrionNetwork.host[7].lo0.lo 	rcvdPkFromHL:sum(packetBytes) 	0
attr interpolationmode  none
attr source  packetReceivedFromUpper
attr title  "packets received from higher layer, sum(packetBytes)"
scalar OrionNetwork.host[7].lo0.lo 	passedUpPk:count 	0
attr interpolationmode  none
attr source  packetSentToUpper
attr title  "packets passed to higher layer, count"
scalar OrionNetwork.host[7].lo0.lo 	passedUpPk:sum(packetBytes) 	0
attr interpolationmode  none
attr source  packetSentToUpper
attr title  "packets passed to higher layer, sum(packetBytes)"
scalar OrionNetwork.host[7].lo0.lo 	droppedPkBitError:count 	0
attr interpolationmode  none
attr source  dropPkBitError
attr title  "packets dropped/bit error, count"
scalar OrionNetwork.host[7].lo0.lo 	droppedPkBitError:sum(packetBytes) 	0
attr interpolationmode  none
attr source  dropPkBitError
attr title  "packets dropped/bit error, sum(packetBytes)"
statistic OrionNetwork.host[7].wlan[0].queue 	queueingTime:histogram
field count 15
field mean 3.1001799866667e-005
field stddev 8.1813598633691e-005
field sum 0.000465026998
field sqrsum 1.0812518282412e-007
field min 0
field max 0.000232766866
attr interpolationmode  none
attr title  "queueing time, histogram"
bin	-INF	0
bin	-0.000116383433	0
bin	-0.00010086564193333	0
bin	-8.5347850866667e-005	0
bin	-6.98300598e-005	0
bin	-5.4312268733333e-005	0
bin	-3.8794477666667e-005	0
bin	-2.32766866e-005	0
bin	-7.7588955333333e-006	13
bin	7.7588955333334e-006	0
bin	2.32766866e-005	0
bin	3.8794477666667e-005	0
bin	5.4312268733333e-005	0
bin	6.98300598e-005	0
bin	8.5347850866667e-005	0
bin	0.00010086564193333	0
bin	0.000116383433	0
bin	0.00013190122406667	0
bin	0.00014741901513333	0
bin	0.0001629368062	0
bin	0.00017845459726667	0
bin	0.00019397238833333	0
bin	0.0002094901794	0
bin	0.00022500797046667	2
bin	0.00024052576153333	0
bin	0.0002560435526	0
bin	0.00027156134366667	0
bin	0.00028707913473333	0
bin	0.0003025969258	0
bin	0.00031811471686667	0
bin	0.00033363250793333	0
bin	0.000349150299	0
scalar OrionNetwork.host[7].wlan[0].queue 	dropPk:count 	0
attr interpolationmode  none
attr source  dropPkByQueue
attr title  "dropped packets, count"
scalar OrionNetwork.host[7].wlan[0].queue 	dropPk:sum(packetBytes) 	0
attr interpolationmode  none
attr source  dropPkByQueue
attr title  "dropped packets, sum(packetBytes)"
scalar OrionNetwork.host[7].wlan[0].queue 	queueLength:max 	1
attr interpolationmode  sample-hold
attr title  "queue length, max"
scalar OrionNetwork.host[7].wlan[0].queue 	queueLength:timeavg 	1.5500899933333e-005
attr interpolationmode  sample-hold
attr title  "queue length, timeavg"
scalar OrionNetwork.host[7].wlan[0].queue 	rcvdPk:count 	15
attr interpolationmode  none
attr title  "received packets, count"
scalar OrionNetwork.host[7].wlan[0].queue 	rcvdPk:sum(packetBytes) 	600
attr interpolationmode  none
attr title  "received packets, sum(packetBytes)"
scalar OrionNetwork.host[7].wlan[0].mac 	droppedPkNotForUs:count 	24
attr interpolationmode  none
attr source  dropPkNotForUs
attr title  "packets dropped/not for us, count"
scalar OrionNetwork.host[7].wlan[0].mac 	droppedPkNotForUs:sum(packetBytes) 	1152
attr interpolationmode  none
attr source  dropPkNotForUs
attr title  "packets dropped/not for us, sum(packetBytes)"
scalar OrionNetwork.host[7].wlan[0].mac 	rcvdPkFromHL:count 	15
attr interpolationmode  none
attr source  packetReceivedFromUpper
attr title  "packets received from higher layer, count"
scalar OrionNetwork.host[7].wlan[0].mac 	rcvdPkFromHL:sum(packetBytes) 	600
attr interpolationmode  none
attr source  packetReceivedFromUpper
attr title  "packets received from higher layer, sum(packetBytes)"
scalar OrionNetwork.host[7].wlan[0].mac 	passedUpPk:count 	61
attr interpolationmode  none
attr source  packetSentToUpper
attr title  "packets passed to higher layer, count"
scalar OrionNetwork.host[7].wlan[0].mac 	passedUpPk:sum(packetBytes) 	2628
attr interpolationmode  none
attr source  packetSentToUpper
attr title  "packets passed to higher layer, sum(packetBytes)"
scalar OrionNetwork.host[7].wlan[0].mac 	rcvdPkFromLL:count 	85
attr interpolationmode  none
attr source  packetReceivedFromLower
attr title  "packets received from lower layer, count"
scalar OrionNetwork.host[7].wlan[0].mac 	rcvdPkFromLL:sum(packetBytes) 	4390
attr interpolationmode  none
attr source  packetReceivedFromLower
attr title  "packets received from lower layer, sum(packetBytes)"
scalar OrionNetwork.host[7].wlan[0].mac 	sentDownPk:count 	15
attr interpolationmode  none
attr source  packetSentToLower
attr title  "packets sent to lower layer, count"
scalar OrionNetwork.host[7].wlan[0].mac 	sentDownPk:sum(packetBytes) 	750
attr interpolationmode  none
attr source  packetSentToLower
attr title  "packets sent to lower layer, sum(packetBytes)"
scalar OrionNetwork.host[7].udpApp[0] 	"packets sent" 	5
scalar OrionNetwork.host[7].udpApp[0] 	"packets received" 	48
scalar OrionNetwork.host[7].udpApp[0] 	sentPk:count 	7
attr interpolationmode  none
attr source  sentPk
attr title  "packets sent, count"
scalar OrionNetwork.host[7].udpApp[0] 	sentPk:sum(packetBytes) 	140
attr interpolationmode  none
attr source  sentPk
attr title  "packets sent, sum(packetBytes)"
scalar OrionNetwork.host[7].udpApp[0] 	rcvdPk:count 	48
attr interpolationmode  none
attr source  rcvdPk
attr title  "packets received, count"
scalar OrionNetwork.host[7].udpApp[0] 	rcvdPk:sum(packetBytes) 	920
attr interpolationmode  none
attr source  rcvdPk
attr title  "packets received, sum(packetBytes)"
statistic OrionNetwork.host[7].udpApp[0] 	rcvdPkLifetime:stats
field count 48
field mean 0.00029029298104167
field stddev 0.0002046516925907
field sum 0.01393406309
field sqrsum 6.0134295305899e-006
field min 0.000232227829
field max 0.001162265888
attr interpolationmode  none
attr source  messageAge(rcvdPk)
attr title  "received packet lifetime, stats"
attr unit  s
scalar OrionNetwork.host[7].udp 	droppedPkBadChecksum:count 	0
attr interpolationmode  none
attr title  "packets dropped (checksum error), count"
scalar OrionNetwork.host[7].udp 	droppedPkWrongPort:count 	0
attr interpolationmode  none
attr title  "packets dropped (wrong port), count"
scalar OrionNetwork.host[7].udp 	passedUpPk:count 	48
attr interpolationmode  none
attr title  "packets passed up, count"
scalar OrionNetwork.host[7].udp 	sentPk:count 	11
attr interpolationmode  none
attr source  sentPk
attr title  "packets sent, count"
scalar OrionNetwork.host[7].udp 	sentPk:sum(packetBytes) 	268
attr interpolationmode  none
attr source  sentPk
attr title  "packets sent, sum(packetBytes)"
scalar OrionNetwork.host[7].udp 	rcvdPk:count 	48
attr interpolationmode  none
attr source  rcvdPk
attr title  "packets received, count"
scalar OrionNetwork.host[7].udp 	rcvdPk:sum(packetBytes) 	1304
attr interpolationmode  none
attr source  rcvdPk
attr title  "packets received, sum(packetBytes)"
scalar OrionNetwork.host[8].networkLayer.arp 	initiatedARPResolution:count 	0
attr title  "ARP initiated resolutions, count"
scalar OrionNetwork.host[8].networkLayer.arp 	sentReply:count 	0
attr title  "ARP replies sent, count"
scalar OrionNetwork.host[8].networkLayer.arp 	sentReq:count 	0
attr title  "ARP request sent, count"
scalar OrionNetwork.host[8].networkLayer.arp 	failedARPResolution:count 	0
attr title  "ARP failed resolutions, count"
scalar OrionNetwork.host[8].networkLayer.arp 	completedARPResolution:count 	0
attr title  "ARP completed resolutions, count"
scalar OrionNetwork.host[8].lo0.lo 	rcvdPkFromHL:count 	0
attr interpolationmode  none
attr source  packetReceivedFromUpper
attr title  "packets received from higher layer, count"
scalar OrionNetwork.host[8].lo0.lo 	rcvdPkFromHL:sum(packetBytes) 	0
attr interpolationmode  none
attr source  packetReceivedFromUpper
attr title  "packets received from higher layer, sum(packetBytes)"
scalar OrionNetwork.host[8].lo0.lo 	passedUpPk:count 	0
attr interpolationmode  none
attr source  packetSentToUpper
attr title  "packets passed to higher layer, count"
scalar OrionNetwork.host[8].lo0.lo 	passedUpPk:sum(packetBytes) 	0
attr interpolationmode  none
attr source  packetSentToUpper
attr title  "packets passed to higher layer, sum(packetBytes)"
scalar OrionNetwork.host[8].lo0.lo 	droppedPkBitError:count 	0
attr interpolationmode  none
attr source  dropPkBitError
attr title  "packets dropped/bit error, count"
scalar OrionNetwork.host[8].lo0.lo 	droppedPkBitError:sum(packetBytes) 	0
attr interpolationmode  none
attr source  dropPkBitError
attr title  "packets dropped/bit error, sum(packetBytes)"
statistic OrionNetwork.host[8].wlan[0].queue 	queueingTime:histogram
field count 5
field mean 0
field stddev 0
field sum 0
field sqrsum 0
field min 0
field max 0
attr interpolationmode  none
attr title  "queueing time, histogram"
bin	-INF	0
bin	-0.5	0
bin	-0.46666666666667	0
bin	-0.43333333333333	0
bin	-0.4	0
bin	-0.36666666666667	0
bin	-0.33333333333333	0
bin	-0.3	0
bin	-0.26666666666667	0
bin	-0.23333333333333	0
bin	-0.2	0
bin	-0.16666666666667	0
bin	-0.13333333333333	0
bin	-0.1	0
bin	-0.066666666666667	0
bin	-0.033333333333333	0
bin	-6.9388939039072e-018	5
bin	0.033333333333333	0
bin	0.066666666666667	0
bin	0.1	0
bin	0.13333333333333	0
bin	0.16666666666667	0
bin	0.2	0
bin	0.23333333333333	0
bin	0.26666666666667	0
bin	0.3	0
bin	0.33333333333333	0
bin	0.36666666666667	0
bin	0.4	0
bin	0.43333333333333	0
bin	0.46666666666667	0
bin	0.5	0
scalar OrionNetwork.host[8].wlan[0].queue 	dropPk:count 	0
attr interpolationmode  none
attr source  dropPkByQueue
attr title  "dropped packets, count"
scalar OrionNetwork.host[8].wlan[0].queue 	dropPk:sum(packetBytes) 	0
attr interpolationmode  none
attr source  dropPkByQueue
attr title  "dropped packets, sum(packetBytes)"
scalar OrionNetwork.host[8].wlan[0].queue 	queueLength:max 	0
attr interpolationmode  sample-hold
attr title  "queue length, max"
scalar OrionNetwork.host[8].wlan[0].queue 	queueLength:timeavg 	0
attr interpolationmode  sample-hold
attr title  "queue length, timeavg"
scalar OrionNetwork.host[8].wlan[0].queue 	rcvdPk:count 	5
attr interpolationmode  none
attr title  "received packets, count"
scalar OrionNetwork.host[8].wlan[0].queue 	rcvdPk:sum(packetBytes) 	240
attr interpolationmode  none
attr title  "received packets, sum(packetBytes)"
scalar OrionNetwork.host[8].wlan[0].mac 	droppedPkNotForUs:count 	0
attr interpolationmode  none
attr source  dropPkNotForUs
attr title  "packets dropped/not for us, count"
scalar OrionNetwork.host[8].wlan[0].mac 	droppedPkNotForUs:sum(packetBytes) 	0
attr interpolationmode  none
attr source  dropPkNotForUs
attr title  "packets dropped/not for us, sum(packetBytes)"
scalar OrionNetwork.host[8].wlan[0].mac 	rcvdPkFromHL:count 	5
attr interpolationmode  none
attr source  packetReceivedFromUpper
attr title  "packets received from higher layer, count"
scalar OrionNetwork.host[8].wlan[0].mac 	rcvdPkFromHL:sum(packetBytes) 	240
attr interpolationmode  none
attr source  packetReceivedFromUpper
attr title  "packets received from higher layer, sum(packetBytes)"
scalar OrionNetwork.host[8].wlan[0].mac 	passedUpPk:count 	12
attr interpolationmode  none
attr source  packetSentToUpper
attr title  "packets passed to higher layer, count"
scalar OrionNetwork.host[8].wlan[0].mac 	passedUpPk:sum(packetBytes) 	576
attr interpolationmode  none
attr source  packetSentToUpper
attr title  "packets passed to higher layer, sum(packetBytes)"
scalar OrionNetwork.host[8].wlan[0].mac 	rcvdPkFromLL:count 	12
attr interpolationmode  none
attr source  packetReceivedFromLower
attr title  "packets received from lower layer, count"
scalar OrionNetwork.host[8].wlan[0].mac 	rcvdPkFromLL:sum(packetBytes) 	696
attr interpolationmode  none
attr source  packetReceivedFromLower
attr title  "packets received from lower layer, sum(packetBytes)"
scalar OrionNetwork.host[8].wlan[0].mac 	sentDownPk:count 	5
attr interpolationmode  none
attr source  packetSentToLower
attr title  "packets sent to lower layer, count"
scalar OrionNetwork.host[8].wlan[0].mac 	sentDownPk:sum(packetBytes) 	290
attr interpolationmode  none
attr source  packetSentToLower
attr title  "packets sent to lower layer, sum(packetBytes)"
scalar OrionNetwork.host[8].udpApp[0] 	"packets sent" 	5
scalar OrionNetwork.host[8].udpApp[0] 	"packets received" 	12
scalar OrionNetwork.host[8].udpApp[0] 	sentPk:count 	5
attr interpolationmode  none
attr source  sentPk
attr title  "packets sent, count"
scalar OrionNetwork.host[8].udpApp[0] 	sentPk:sum(packetBytes) 	100
attr interpolationmode  none
attr source  sentPk
attr title  "packets sent, sum(packetBytes)"
scalar OrionNetwork.host[8].udpApp[0] 	rcvdPk:count 	12
attr interpolationmode  none
attr source  rcvdPk
attr title  "packets received, count"
scalar OrionNetwork.host[8].udpApp[0] 	rcvdPk:sum(packetBytes) 	240
attr interpolationmode  none
attr source  rcvdPk
attr title  "packets received, sum(packetBytes)"
statistic OrionNetwork.host[8].udpApp[0] 	rcvdPkLifetime:stats
field count 12
field mean 0.00023262049425
field stddev 1.6509396196829e-007
field sum 0.002791445931
field sqrsum 6.4934783195755e-007
field min 0.000232274733
field max 0.000232787141
attr interpolationmode  none
attr source  messageAge(rcvdPk)
attr title  "received packet lifetime, stats"
attr unit  s
scalar OrionNetwork.host[8].udp 	droppedPkBadChecksum:count 	0
attr interpolationmode  none
attr title  "packets dropped (checksum error), count"
scalar OrionNetwork.host[8].udp 	droppedPkWrongPort:count 	0
attr interpolationmode  none
attr title  "packets dropped (wrong port), count"
scalar OrionNetwork.host[8].udp 	passedUpPk:count 	12
attr interpolationmode  none
attr title  "packets passed up, count"
scalar OrionNetwork.host[8].udp 	sentPk:count 	5
attr interpolationmode  none
attr source  sentPk
attr title  "packets sent, count"
scalar OrionNetwork.host[8].udp 	sentPk:sum(packetBytes) 	140
attr interpolationmode  none
attr source  sentPk
attr title  "packets sent, sum(packetBytes)"
scalar OrionNetwork.host[8].udp 	rcvdPk:count 	12
attr interpolationmode  none
attr source  rcvdPk
attr title  "packets received, count"
scalar OrionNetwork.host[8].udp 	rcvdPk:sum(packetBytes) 	336
attr interpolationmode  none
attr source  rcvdPk
attr title  "packets received, sum(packetBytes)"
scalar OrionNetwork.host[9].networkLayer.arp 	initiatedARPResolution:count 	0
attr title  "ARP initiated resolutions, count"
scalar OrionNetwork.host[9].networkLayer.arp 	sentReply:count 	0
attr title  "ARP replies sent, count"
scalar OrionNetwork.host[9].networkLayer.arp 	sentReq:count 	0
attr title  "ARP request sent, count"
scalar OrionNetwork.host[9].networkLayer.arp 	failedARPResolution:count 	0
attr title  "ARP failed resolutions, count"
scalar OrionNetwork.host[9].networkLayer.arp 	completedARPResolution:count 	0
attr title  "ARP completed resolutions, count"
scalar OrionNetwork.host[9].lo0.lo 	rcvdPkFromHL:count 	0
attr interpolationmode  none
attr source  packetReceivedFromUpper
attr title  "packets received from higher layer, count"
scalar OrionNetwork.host[9].lo0.lo 	rcvdPkFromHL:sum(packetBytes) 	0
attr interpolationmode  none
attr source  packetReceivedFromUpper
attr title  "packets received from higher layer, sum(packetBytes)"
scalar OrionNetwork.host[9].lo0.lo 	passedUpPk:count 	0
attr interpolationmode  none
attr source  packetSentToUpper
attr title  "packets passed to higher layer, count"
scalar OrionNetwork.host[9].lo0.lo 	passedUpPk:sum(packetBytes) 	0
attr interpolationmode  none
attr source  packetSentToUpper
attr title  "packets passed to higher layer, sum(packetBytes)"
scalar OrionNetwork.host[9].lo0.lo 	droppedPkBitError:count 	0
attr interpolationmode  none
attr source  dropPkBitError
attr title  "packets dropped/bit error, count"
scalar OrionNetwork.host[9].lo0.lo 	droppedPkBitError:sum(packetBytes) 	0
attr interpolationmode  none
attr source  dropPkBitError
attr title  "packets dropped/bit error, sum(packetBytes)"
statistic OrionNetwork.host[9].wlan[0].queue 	queueingTime:histogram
field count 5
field mean 0
field stddev 0
field sum 0
field sqrsum 0
field min 0
field max 0
attr interpolationmode  none
attr title  "queueing time, histogram"
bin	-INF	0
bin	-0.5	0
bin	-0.46666666666667	0
bin	-0.43333333333333	0
bin	-0.4	0
bin	-0.36666666666667	0
bin	-0.33333333333333	0
bin	-0.3	0
bin	-0.26666666666667	0
bin	-0.23333333333333	0
bin	-0.2	0
bin	-0.16666666666667	0
bin	-0.13333333333333	0
bin	-0.1	0
bin	-0.066666666666667	0
bin	-0.033333333333333	0
bin	-6.9388939039072e-018	5
bin	0.033333333333333	0
bin	0.066666666666667	0
bin	0.1	0
bin	0.13333333333333	0
bin	0.16666666666667	0
bin	0.2	0
bin	0.23333333333333	0
bin	0.26666666666667	0
bin	0.3	0
bin	0.33333333333333	0
bin	0.36666666666667	0
bin	0.4	0
bin	0.43333333333333	0
bin	0.46666666666667	0
bin	0.5	0
scalar OrionNetwork.host[9].wlan[0].queue 	dropPk:count 	0
attr interpolationmode  none
attr source  dropPkByQueue
attr title  "dropped packets, count"
scalar OrionNetwork.host[9].wlan[0].queue 	dropPk:sum(packetBytes) 	0
attr interpolationmode  none
attr source  dropPkByQueue
attr title  "dropped packets, sum(packetBytes)"
scalar OrionNetwork.host[9].wlan[0].queue 	queueLength:max 	0
attr interpolationmode  sample-hold
attr title  "queue length, max"
scalar OrionNetwork.host[9].wlan[0].queue 	queueLength:timeavg 	0
attr interpolationmode  sample-hold
attr title  "queue length, timeavg"
scalar OrionNetwork.host[9].wlan[0].queue 	rcvdPk:count 	5
attr interpolationmode  none
attr title  "received packets, count"
scalar OrionNetwork.host[9].wlan[0].queue 	rcvdPk:sum(packetBytes) 	240
attr interpolationmode  none
attr title  "received packets, sum(packetBytes)"
scalar OrionNetwork.host[9].wlan[0].mac 	droppedPkNotForUs:count 	37
attr interpolationmode  none
attr source  dropPkNotForUs
attr title  "packets dropped/not for us, count"
scalar OrionNetwork.host[9].wlan[0].mac 	droppedPkNotForUs:sum(packetBytes) 	1786
attr interpolationmode  none
attr source  dropPkNotForUs
attr title  "packets dropped/not for us, sum(packetBytes)"
scalar OrionNetwork.host[9].wlan[0].mac 	rcvdPkFromHL:count 	5
attr interpolationmode  none
attr source  packetReceivedFromUpper
attr title  "packets received from higher layer, count"
scalar OrionNetwork.host[9].wlan[0].mac 	rcvdPkFromHL:sum(packetBytes) 	240
attr interpolationmode  none
attr source  packetReceivedFromUpper
attr title  "packets received from higher layer, sum(packetBytes)"
scalar OrionNetwork.host[9].wlan[0].mac 	passedUpPk:count 	68
attr interpolationmode  none
attr source  packetSentToUpper
attr title  "packets passed to higher layer, count"
scalar OrionNetwork.host[9].wlan[0].mac 	passedUpPk:sum(packetBytes) 	3024
attr interpolationmode  none
attr source  packetSentToUpper
attr title  "packets passed to higher layer, sum(packetBytes)"
scalar OrionNetwork.host[9].wlan[0].mac 	rcvdPkFromLL:count 	105
attr interpolationmode  none
attr source  packetReceivedFromLower
attr title  "packets received from lower layer, count"
scalar OrionNetwork.host[9].wlan[0].mac 	rcvdPkFromLL:sum(packetBytes) 	5490
attr interpolationmode  none
attr source  packetReceivedFromLower
attr title  "packets received from lower layer, sum(packetBytes)"
scalar OrionNetwork.host[9].wlan[0].mac 	sentDownPk:count 	5
attr interpolationmode  none
attr source  packetSentToLower
attr title  "packets sent to lower layer, count"
scalar OrionNetwork.host[9].wlan[0].mac 	sentDownPk:sum(packetBytes) 	290
attr interpolationmode  none
attr source  packetSentToLower
attr title  "packets sent to lower layer, sum(packetBytes)"
scalar OrionNetwork.host[9].udpApp[0] 	"packets sent" 	5
scalar OrionNetwork.host[9].udpApp[0] 	"packets received" 	56
scalar OrionNetwork.host[9].udpApp[0] 	sentPk:count 	5
attr interpolationmode  none
attr source  sentPk
attr title  "packets sent, count"
scalar OrionNetwork.host[9].udpApp[0] 	sentPk:sum(packetBytes) 	100
attr interpolationmode  none
attr source  sentPk
attr title  "packets sent, sum(packetBytes)"
scalar OrionNetwork.host[9].udpApp[0] 	rcvdPk:count 	56
attr interpolationmode  none
attr source  rcvdPk
attr title  "packets received, count"
scalar OrionNetwork.host[9].udpApp[0] 	rcvdPk:sum(packetBytes) 	1120
attr interpolationmode  none
attr source  rcvdPk
attr title  "packets received, sum(packetBytes)"
statistic OrionNetwork.host[9].udpApp[0] 	rcvdPkLifetime:stats
field count 56
field mean 0.00023253228614286
field stddev 2.2577136153471e-007
field sum 0.013021808024
field sqrsum 3.027993593033e-006
field min 0.000232011842
field max 0.000232833424
attr interpolationmode  none
attr source  messageAge(rcvdPk)
attr title  "received packet lifetime, stats"
attr unit  s
scalar OrionNetwork.host[9].udp 	droppedPkBadChecksum:count 	0
attr interpolationmode  none
attr title  "packets dropped (checksum error), count"
scalar OrionNetwork.host[9].udp 	droppedPkWrongPort:count 	0
attr interpolationmode  none
attr title  "packets dropped (wrong port), count"
scalar OrionNetwork.host[9].udp 	passedUpPk:count 	56
attr interpolationmode  none
attr title  "packets passed up, count"
scalar OrionNetwork.host[9].udp 	sentPk:count 	5
attr interpolationmode  none
attr source  sentPk
attr title  "packets sent, count"
scalar OrionNetwork.host[9].udp 	sentPk:sum(packetBytes) 	140
attr interpolationmode  none
attr source  sentPk
attr title  "packets sent, sum(packetBytes)"
scalar OrionNetwork.host[9].udp 	rcvdPk:count 	56
attr interpolationmode  none
attr source  rcvdPk
attr title  "packets received, count"
scalar OrionNetwork.host[9].udp 	rcvdPk:sum(packetBytes) 	1568
attr interpolationmode  none
attr source  rcvdPk
attr title  "packets received, sum(packetBytes)"
scalar OrionNetwork.host[10].networkLayer.arp 	initiatedARPResolution:count 	0
attr title  "ARP initiated resolutions, count"
scalar OrionNetwork.host[10].networkLayer.arp 	sentReply:count 	0
attr title  "ARP replies sent, count"
scalar OrionNetwork.host[10].networkLayer.arp 	sentReq:count 	0
attr title  "ARP request sent, count"
scalar OrionNetwork.host[10].networkLayer.arp 	failedARPResolution:count 	0
attr title  "ARP failed resolutions, count"
scalar OrionNetwork.host[10].networkLayer.arp 	completedARPResolution:count 	0
attr title  "ARP completed resolutions, count"
scalar OrionNetwork.host[10].lo0.lo 	rcvdPkFromHL:count 	0
attr interpolationmode  none
attr source  packetReceivedFromUpper
attr title  "packets received from higher layer, count"
scalar OrionNetwork.host[10].lo0.lo 	rcvdPkFromHL:sum(packetBytes) 	0
attr interpolationmode  none
attr source  packetReceivedFromUpper
attr title  "packets received from higher layer, sum(packetBytes)"
scalar OrionNetwork.host[10].lo0.lo 	passedUpPk:count 	0
attr interpolationmode  none
attr source  packetSentToUpper
attr title  "packets passed to higher layer, count"
scalar OrionNetwork.host[10].lo0.lo 	passedUpPk:sum(packetBytes) 	0
attr interpolationmode  none
attr source  packetSentToUpper
attr title  "packets passed to higher layer, sum(packetBytes)"
scalar OrionNetwork.host[10].lo0.lo 	droppedPkBitError:count 	0
attr interpolationmode  none
attr source  dropPkBitError
attr title  "packets dropped/bit error, count"
scalar OrionNetwork.host[10].lo0.lo 	droppedPkBitError:sum(packetBytes) 	0
attr interpolationmode  none
attr source  dropPkBitError
attr title  "packets dropped/bit error, sum(packetBytes)"
statistic OrionNetwork.host[10].wlan[0].queue 	queueingTime:histogram
field count 5
field mean 0
field stddev 0
field sum 0
field sqrsum 0
field min 0
field max 0
attr interpolationmode  none
attr title  "queueing time, histogram"
bin	-INF	0
bin	-0.5	0
bin	-0.46666666666667	0
bin	-0.43333333333333	0
bin	-0.4	0
bin	-0.36666666666667	0
bin	-0.33333333333333	0
bin	-0.3	0
bin	-0.26666666666667	0
bin	-0.23333333333333	0
bin	-0.2	0
bin	-0.16666666666667	0
bin	-0.13333333333333	0
bin	-0.1	0
bin	-0.066666666666667	0
bin	-0.033333333333333	0
bin	-6.9388939039072e-018	5
bin	0.033333333333333	0
bin	0.066666666666667	0
bin	0.1	0
bin	0.13333333333333	0
bin	0.16666666666667	0
bin	0.2	0
bin	0.23333333333333	0
bin	0.26666666666667	0
bin	0.3	0
bin	0.33333333333333	0
bin	0.36666666666667	0
bin	0.4	0
bin	0.43333333333333	0
bin	0.46666666666667	0
bin	0.5	0
scalar OrionNetwork.host[10].wlan[0].queue 	dropPk:count 	0
attr interpolationmode  none
attr source  dropPkByQueue
attr title  "dropped packets, count"
scalar OrionNetwork.host[10].wlan[0].queue 	dropPk:sum(packetBytes) 	0
attr interpolationmode  none
attr source  dropPkByQueue
attr title  "dropped packets, sum(packetBytes)"
scalar OrionNetwork.host[10].wlan[0].queue 	queueLength:max 	0
attr interpolationmode  sample-hold
attr title  "queue length, max"
scalar OrionNetwork.host[10].wlan[0].queue 	queueLength:timeavg 	0
attr interpolationmode  sample-hold
attr title  "queue length, timeavg"
scalar OrionNetwork.host[10].wlan[0].queue 	rcvdPk:count 	5
attr interpolationmode  none
attr title  "received packets, count"
scalar OrionNetwork.host[10].wlan[0].queue 	rcvdPk:sum(packetBytes) 	240
attr interpolationmode  none
attr title  "received packets, sum(packetBytes)"
scalar OrionNetwork.host[10].wlan[0].mac 	droppedPkNotForUs:count 	30
attr interpolationmode  none
attr source  dropPkNotForUs
attr title  "packets dropped/not for us, count"
scalar OrionNetwork.host[10].wlan[0].mac 	droppedPkNotForUs:sum(packetBytes) 	1440
attr interpolationmode  none
attr source  dropPkNotForUs
attr title  "packets dropped/not for us, sum(packetBytes)"
scalar OrionNetwork.host[10].wlan[0].mac 	rcvdPkFromHL:count 	5
attr interpolationmode  none
attr source  packetReceivedFromUpper
attr title  "packets received from higher layer, count"
scalar OrionNetwork.host[10].wlan[0].mac 	rcvdPkFromHL:sum(packetBytes) 	240
attr interpolationmode  none
attr source  packetReceivedFromUpper
attr title  "packets received from higher layer, sum(packetBytes)"
scalar OrionNetwork.host[10].wlan[0].mac 	passedUpPk:count 	53
attr interpolationmode  none
attr source  packetSentToUpper
attr title  "packets passed to higher layer, count"
scalar OrionNetwork.host[10].wlan[0].mac 	passedUpPk:sum(packetBytes) 	2244
attr interpolationmode  none
attr source  packetSentToUpper
attr title  "packets passed to higher layer, sum(packetBytes)"
scalar OrionNetwork.host[10].wlan[0].mac 	rcvdPkFromLL:count 	83
attr interpolationmode  none
attr source  packetReceivedFromLower
attr title  "packets received from lower layer, count"
scalar OrionNetwork.host[10].wlan[0].mac 	rcvdPkFromLL:sum(packetBytes) 	4214
attr interpolationmode  none
attr source  packetReceivedFromLower
attr title  "packets received from lower layer, sum(packetBytes)"
scalar OrionNetwork.host[10].wlan[0].mac 	sentDownPk:count 	5
attr interpolationmode  none
[...]
attr interpolationmode  none
attr source  dropPkByQueue
attr title  "dropped packets, count"
scalar OrionNetwork.host[22].wlan[0].queue 	dropPk:sum(packetBytes) 	0
attr interpolationmode  none
attr source  dropPkByQueue
attr title  "dropped packets, sum(packetBytes)"
scalar OrionNetwork.host[22].wlan[0].queue 	queueLength:max 	1
attr interpolationmode  sample-hold
attr title  "queue length, max"
scalar OrionNetwork.host[22].wlan[0].queue 	queueLength:timeavg 	3.09994107e-005
attr interpolationmode  sample-hold
attr title  "queue length, timeavg"
scalar OrionNetwork.host[22].wlan[0].queue 	rcvdPk:count 	20
attr interpolationmode  none
attr title  "received packets, count"
scalar OrionNetwork.host[22].wlan[0].queue 	rcvdPk:sum(packetBytes) 	760
attr interpolationmode  none
attr title  "received packets, sum(packetBytes)"
scalar OrionNetwork.host[22].wlan[0].mac 	droppedPkNotForUs:count 	26
attr interpolationmode  none
attr source  dropPkNotForUs
attr title  "packets dropped/not for us, count"
scalar OrionNetwork.host[22].wlan[0].mac 	droppedPkNotForUs:sum(packetBytes) 	1248
attr interpolationmode  none
attr source  dropPkNotForUs
attr title  "packets dropped/not for us, sum(packetBytes)"
scalar OrionNetwork.host[22].wlan[0].mac 	rcvdPkFromHL:count 	20
attr interpolationmode  none
attr source  packetReceivedFromUpper
attr title  "packets received from higher layer, count"
scalar OrionNetwork.host[22].wlan[0].mac 	rcvdPkFromHL:sum(packetBytes) 	760
attr interpolationmode  none
attr source  packetReceivedFromUpper
attr title  "packets received from higher layer, sum(packetBytes)"
scalar OrionNetwork.host[22].wlan[0].mac 	passedUpPk:count 	63
attr interpolationmode  none
attr source  packetSentToUpper
attr title  "packets passed to higher layer, count"
scalar OrionNetwork.host[22].wlan[0].mac 	passedUpPk:sum(packetBytes) 	2704
attr interpolationmode  none
attr source  packetSentToUpper
attr title  "packets passed to higher layer, sum(packetBytes)"
scalar OrionNetwork.host[22].wlan[0].mac 	rcvdPkFromLL:count 	89
attr interpolationmode  none
attr source  packetReceivedFromLower
attr title  "packets received from lower layer, count"
scalar OrionNetwork.host[22].wlan[0].mac 	rcvdPkFromLL:sum(packetBytes) 	4582
attr interpolationmode  none
attr source  packetReceivedFromLower
attr title  "packets received from lower layer, sum(packetBytes)"
scalar OrionNetwork.host[22].wlan[0].mac 	sentDownPk:count 	20
attr interpolationmode  none
attr source  packetSentToLower
attr title  "packets sent to lower layer, count"
scalar OrionNetwork.host[22].wlan[0].mac 	sentDownPk:sum(packetBytes) 	960
attr interpolationmode  none
attr source  packetSentToLower
attr title  "packets sent to lower layer, sum(packetBytes)"
scalar OrionNetwork.host[22].udpApp[0] 	"packets sent" 	5
scalar OrionNetwork.host[22].udpApp[0] 	"packets received" 	49
scalar OrionNetwork.host[22].udpApp[0] 	sentPk:count 	9
attr interpolationmode  none
attr source  sentPk
attr title  "packets sent, count"
scalar OrionNetwork.host[22].udpApp[0] 	sentPk:sum(packetBytes) 	160
attr interpolationmode  none
attr source  sentPk
attr title  "packets sent, sum(packetBytes)"
scalar OrionNetwork.host[22].udpApp[0] 	rcvdPk:count 	49
attr interpolationmode  none
attr source  rcvdPk
attr title  "packets received, count"
scalar OrionNetwork.host[22].udpApp[0] 	rcvdPk:sum(packetBytes) 	940
attr interpolationmode  none
attr source  rcvdPk
attr title  "packets received, sum(packetBytes)"
statistic OrionNetwork.host[22].udpApp[0] 	rcvdPkLifetime:stats
field count 49
field mean 0.00031703997961224
field stddev 0.00029099533809131
field sum 0.015534959001
field sqrsum 8.9897608509162e-006
field min 0.000232223096
field max 0.001605072331
attr interpolationmode  none
attr source  messageAge(rcvdPk)
attr title  "received packet lifetime, stats"
attr unit  s
scalar OrionNetwork.host[22].udp 	droppedPkBadChecksum:count 	0
attr interpolationmode  none
attr title  "packets dropped (checksum error), count"
scalar OrionNetwork.host[22].udp 	droppedPkWrongPort:count 	0
attr interpolationmode  none
attr title  "packets dropped (wrong port), count"
scalar OrionNetwork.host[22].udp 	passedUpPk:count 	49
attr interpolationmode  none
attr title  "packets passed up, count"
scalar OrionNetwork.host[22].udp 	sentPk:count 	14
attr interpolationmode  none
attr source  sentPk
attr title  "packets sent, count"
scalar OrionNetwork.host[22].udp 	sentPk:sum(packetBytes) 	1336
attr interpolationmode  none
attr source  sentPk
attr title  "packets sent, sum(packetBytes)"
scalar OrionNetwork.host[22].udp 	rcvdPk:count 	49
attr interpolationmode  none
attr source  rcvdPk
attr title  "packets received, count"
scalar OrionNetwork.host[22].udp 	rcvdPk:sum(packetBytes) 	1332
attr interpolationmode  none
attr source  rcvdPk
attr title  "packets received, sum(packetBytes)"
scalar OrionNetwork.host[23].networkLayer.arp 	initiatedARPResolution:count 	1
attr title  "ARP initiated resolutions, count"
scalar OrionNetwork.host[23].networkLayer.arp 	sentReply:count 	3
attr title  "ARP replies sent, count"
scalar OrionNetwork.host[23].networkLayer.arp 	sentReq:count 	1
attr title  "ARP request sent, count"
scalar OrionNetwork.host[23].networkLayer.arp 	failedARPResolution:count 	0
attr title  "ARP failed resolutions, count"
scalar OrionNetwork.host[23].networkLayer.arp 	completedARPResolution:count 	8
attr title  "ARP completed resolutions, count"
scalar OrionNetwork.host[23].lo0.lo 	rcvdPkFromHL:count 	0
attr interpolationmode  none
attr source  packetReceivedFromUpper
attr title  "packets received from higher layer, count"
scalar OrionNetwork.host[23].lo0.lo 	rcvdPkFromHL:sum(packetBytes) 	0
attr interpolationmode  none
attr source  packetReceivedFromUpper
attr title  "packets received from higher layer, sum(packetBytes)"
scalar OrionNetwork.host[23].lo0.lo 	passedUpPk:count 	0
attr interpolationmode  none
attr source  packetSentToUpper
attr title  "packets passed to higher layer, count"
scalar OrionNetwork.host[23].lo0.lo 	passedUpPk:sum(packetBytes) 	0
attr interpolationmode  none
attr source  packetSentToUpper
attr title  "packets passed to higher layer, sum(packetBytes)"
scalar OrionNetwork.host[23].lo0.lo 	droppedPkBitError:count 	0
attr interpolationmode  none
attr source  dropPkBitError
attr title  "packets dropped/bit error, count"
scalar OrionNetwork.host[23].lo0.lo 	droppedPkBitError:sum(packetBytes) 	0
attr interpolationmode  none
attr source  dropPkBitError
attr title  "packets dropped/bit error, sum(packetBytes)"
statistic OrionNetwork.host[23].wlan[0].queue 	queueingTime:histogram
field count 21
field mean 4.4225738666667e-005
field stddev 9.3425237351758e-005
field sum 0.000928740512
field sqrsum 2.1563973465751e-007
field min 0
field max 0.000232185128
attr interpolationmode  none
attr title  "queueing time, histogram"
bin	-INF	0
bin	-0.000116092564	0
bin	-0.00010061355546667	0
bin	-8.5134546933333e-005	0
bin	-6.96555384e-005	0
bin	-5.4176529866667e-005	0
bin	-3.8697521333333e-005	0
bin	-2.32185128e-005	0
bin	-7.7395042666667e-006	17
bin	7.7395042666667e-006	0
bin	2.32185128e-005	0
bin	3.8697521333333e-005	0
bin	5.4176529866667e-005	0
bin	6.96555384e-005	0
bin	8.5134546933333e-005	0
bin	0.00010061355546667	0
bin	0.000116092564	0
bin	0.00013157157253333	0
bin	0.00014705058106667	0
bin	0.0001625295896	0
bin	0.00017800859813333	0
bin	0.00019348760666667	0
bin	0.0002089666152	0
bin	0.00022444562373333	4
bin	0.00023992463226667	0
bin	0.0002554036408	0
bin	0.00027088264933333	0
bin	0.00028636165786667	0
bin	0.0003018406664	0
bin	0.00031731967493333	0
bin	0.00033279868346667	0
bin	0.000348277692	0
scalar OrionNetwork.host[23].wlan[0].queue 	dropPk:count 	0
attr interpolationmode  none
attr source  dropPkByQueue
attr title  "dropped packets, count"
scalar OrionNetwork.host[23].wlan[0].queue 	dropPk:sum(packetBytes) 	0
attr interpolationmode  none
attr source  dropPkByQueue
attr title  "dropped packets, sum(packetBytes)"
scalar OrionNetwork.host[23].wlan[0].queue 	queueLength:max 	1
attr interpolationmode  sample-hold
attr title  "queue length, max"
scalar OrionNetwork.host[23].wlan[0].queue 	queueLength:timeavg 	3.0958017066667e-005
attr interpolationmode  sample-hold
attr title  "queue length, timeavg"
scalar OrionNetwork.host[23].wlan[0].queue 	rcvdPk:count 	21
attr interpolationmode  none
attr title  "received packets, count"
scalar OrionNetwork.host[23].wlan[0].queue 	rcvdPk:sum(packetBytes) 	848
attr interpolationmode  none
attr title  "received packets, sum(packetBytes)"
scalar OrionNetwork.host[23].wlan[0].mac 	droppedPkNotForUs:count 	14
attr interpolationmode  none
attr source  dropPkNotForUs
attr title  "packets dropped/not for us, count"
scalar OrionNetwork.host[23].wlan[0].mac 	droppedPkNotForUs:sum(packetBytes) 	672
attr interpolationmode  none
attr source  dropPkNotForUs
attr title  "packets dropped/not for us, sum(packetBytes)"
scalar OrionNetwork.host[23].wlan[0].mac 	rcvdPkFromHL:count 	21
attr interpolationmode  none
attr source  packetReceivedFromUpper
attr title  "packets received from higher layer, count"
scalar OrionNetwork.host[23].wlan[0].mac 	rcvdPkFromHL:sum(packetBytes) 	848
attr interpolationmode  none
attr source  packetReceivedFromUpper
attr title  "packets received from higher layer, sum(packetBytes)"
scalar OrionNetwork.host[23].wlan[0].mac 	passedUpPk:count 	61
attr interpolationmode  none
attr source  packetSentToUpper
attr title  "packets passed to higher layer, count"
scalar OrionNetwork.host[23].wlan[0].mac 	passedUpPk:sum(packetBytes) 	2648
attr interpolationmode  none
attr source  packetSentToUpper
attr title  "packets passed to higher layer, sum(packetBytes)"
scalar OrionNetwork.host[23].wlan[0].mac 	rcvdPkFromLL:count 	75
attr interpolationmode  none
attr source  packetReceivedFromLower
attr title  "packets received from lower layer, count"
scalar OrionNetwork.host[23].wlan[0].mac 	rcvdPkFromLL:sum(packetBytes) 	3930
attr interpolationmode  none
attr source  packetReceivedFromLower
attr title  "packets received from lower layer, sum(packetBytes)"
scalar OrionNetwork.host[23].wlan[0].mac 	sentDownPk:count 	21
attr interpolationmode  none
attr source  packetSentToLower
attr title  "packets sent to lower layer, count"
scalar OrionNetwork.host[23].wlan[0].mac 	sentDownPk:sum(packetBytes) 	1058
attr interpolationmode  none
attr source  packetSentToLower
attr title  "packets sent to lower layer, sum(packetBytes)"
scalar OrionNetwork.host[23].udpApp[0] 	"packets sent" 	5
scalar OrionNetwork.host[23].udpApp[0] 	"packets received" 	51
scalar OrionNetwork.host[23].udpApp[0] 	sentPk:count 	9
attr interpolationmode  none
attr source  sentPk
attr title  "packets sent, count"
scalar OrionNetwork.host[23].udpApp[0] 	sentPk:sum(packetBytes) 	180
attr interpolationmode  none
attr source  sentPk
attr title  "packets sent, sum(packetBytes)"
scalar OrionNetwork.host[23].udpApp[0] 	rcvdPk:count 	51
attr interpolationmode  none
attr source  rcvdPk
attr title  "packets received, count"
scalar OrionNetwork.host[23].udpApp[0] 	rcvdPk:sum(packetBytes) 	940
attr interpolationmode  none
attr source  rcvdPk
attr title  "packets received, sum(packetBytes)"
statistic OrionNetwork.host[23].udpApp[0] 	rcvdPkLifetime:stats
field count 51
field mean 0.00029839190284314
field stddev 0.00025940035004702
field sum 0.015217987045
field sqrsum 7.9053511920256e-006
field min 0.000232185128
field max 0.001757890081
attr interpolationmode  none
attr source  messageAge(rcvdPk)
attr title  "received packet lifetime, stats"
attr unit  s
scalar OrionNetwork.host[23].udp 	droppedPkBadChecksum:count 	0
attr interpolationmode  none
attr title  "packets dropped (checksum error), count"
scalar OrionNetwork.host[23].udp 	droppedPkWrongPort:count 	0
attr interpolationmode  none
attr title  "packets dropped (wrong port), count"
scalar OrionNetwork.host[23].udp 	passedUpPk:count 	51
attr interpolationmode  none
attr title  "packets passed up, count"
scalar OrionNetwork.host[23].udp 	sentPk:count 	17
attr interpolationmode  none
attr source  sentPk
attr title  "packets sent, count"
scalar OrionNetwork.host[23].udp 	sentPk:sum(packetBytes) 	396
attr interpolationmode  none
attr source  sentPk
attr title  "packets sent, sum(packetBytes)"
scalar OrionNetwork.host[23].udp 	rcvdPk:count 	51
attr interpolationmode  none
attr source  rcvdPk
attr title  "packets received, count"
scalar OrionNetwork.host[23].udp 	rcvdPk:sum(packetBytes) 	1348
attr interpolationmode  none
attr source  rcvdPk
attr title  "packets received, sum(packetBytes)"
scalar OrionNetwork.host[24].networkLayer.arp 	initiatedARPResolution:count 	0
attr title  "ARP initiated resolutions, count"
scalar OrionNetwork.host[24].networkLayer.arp 	sentReply:count 	0
attr title  "ARP replies sent, count"
scalar OrionNetwork.host[24].networkLayer.arp 	sentReq:count 	0
attr title  "ARP request sent, count"
scalar OrionNetwork.host[24].networkLayer.arp 	failedARPResolution:count 	0
attr title  "ARP failed resolutions, count"
scalar OrionNetwork.host[24].networkLayer.arp 	completedARPResolution:count 	0
attr title  "ARP completed resolutions, count"
scalar OrionNetwork.host[24].lo0.lo 	rcvdPkFromHL:count 	0
attr interpolationmode  none
attr source  packetReceivedFromUpper
attr title  "packets received from higher layer, count"
scalar OrionNetwork.host[24].lo0.lo 	rcvdPkFromHL:sum(packetBytes) 	0
attr interpolationmode  none
attr source  packetReceivedFromUpper
attr title  "packets received from higher layer, sum(packetBytes)"
scalar OrionNetwork.host[24].lo0.lo 	passedUpPk:count 	0
attr interpolationmode  none
attr source  packetSentToUpper
attr title  "packets passed to higher layer, count"
scalar OrionNetwork.host[24].lo0.lo 	passedUpPk:sum(packetBytes) 	0
attr interpolationmode  none
attr source  packetSentToUpper
attr title  "packets passed to higher layer, sum(packetBytes)"
scalar OrionNetwork.host[24].lo0.lo 	droppedPkBitError:count 	0
attr interpolationmode  none
attr source  dropPkBitError
attr title  "packets dropped/bit error, count"
scalar OrionNetwork.host[24].lo0.lo 	droppedPkBitError:sum(packetBytes) 	0
attr interpolationmode  none
attr source  dropPkBitError
attr title  "packets dropped/bit error, sum(packetBytes)"
statistic OrionNetwork.host[24].wlan[0].queue 	queueingTime:histogram
field count 5
field mean 0
field stddev 0
field sum 0
field sqrsum 0
field min 0
field max 0
attr interpolationmode  none
attr title  "queueing time, histogram"
bin	-INF	0
bin	-0.5	0
bin	-0.46666666666667	0
bin	-0.43333333333333	0
bin	-0.4	0
bin	-0.36666666666667	0
bin	-0.33333333333333	0
bin	-0.3	0
bin	-0.26666666666667	0
bin	-0.23333333333333	0
bin	-0.2	0
bin	-0.16666666666667	0
bin	-0.13333333333333	0
bin	-0.1	0
bin	-0.066666666666667	0
bin	-0.033333333333333	0
bin	-6.9388939039072e-018	5
bin	0.033333333333333	0
bin	0.066666666666667	0
bin	0.1	0
bin	0.13333333333333	0
bin	0.16666666666667	0
bin	0.2	0
bin	0.23333333333333	0
bin	0.26666666666667	0
bin	0.3	0
bin	0.33333333333333	0
bin	0.36666666666667	0
bin	0.4	0
bin	0.43333333333333	0
bin	0.46666666666667	0
bin	0.5	0
scalar OrionNetwork.host[24].wlan[0].queue 	dropPk:count 	0
attr interpolationmode  none
attr source  dropPkByQueue
attr title  "dropped packets, count"
scalar OrionNetwork.host[24].wlan[0].queue 	dropPk:sum(packetBytes) 	0
attr interpolationmode  none
attr source  dropPkByQueue
attr title  "dropped packets, sum(packetBytes)"
scalar OrionNetwork.host[24].wlan[0].queue 	queueLength:max 	0
attr interpolationmode  sample-hold
attr title  "queue length, max"
scalar OrionNetwork.host[24].wlan[0].queue 	queueLength:timeavg 	0
attr interpolationmode  sample-hold
attr title  "queue length, timeavg"
scalar OrionNetwork.host[24].wlan[0].queue 	rcvdPk:count 	5
attr interpolationmode  none
attr title  "received packets, count"
scalar OrionNetwork.host[24].wlan[0].queue 	rcvdPk:sum(packetBytes) 	240
attr interpolationmode  none
attr title  "received packets, sum(packetBytes)"
scalar OrionNetwork.host[24].wlan[0].mac 	droppedPkNotForUs:count 	24
attr interpolationmode  none
attr source  dropPkNotForUs
attr title  "packets dropped/not for us, count"
scalar OrionNetwork.host[24].wlan[0].mac 	droppedPkNotForUs:sum(packetBytes) 	1192
attr interpolationmode  none
attr source  dropPkNotForUs
attr title  "packets dropped/not for us, sum(packetBytes)"
scalar OrionNetwork.host[24].wlan[0].mac 	rcvdPkFromHL:count 	5
attr interpolationmode  none
attr source  packetReceivedFromUpper
attr title  "packets received from higher layer, count"
scalar OrionNetwork.host[24].wlan[0].mac 	rcvdPkFromHL:sum(packetBytes) 	240
attr interpolationmode  none
attr source  packetReceivedFromUpper
attr title  "packets received from higher layer, sum(packetBytes)"
scalar OrionNetwork.host[24].wlan[0].mac 	passedUpPk:count 	36
attr interpolationmode  none
attr source  packetSentToUpper
attr title  "packets passed to higher layer, count"
scalar OrionNetwork.host[24].wlan[0].mac 	passedUpPk:sum(packetBytes) 	1668
attr interpolationmode  none
attr source  packetSentToUpper
attr title  "packets passed to higher layer, sum(packetBytes)"
scalar OrionNetwork.host[24].wlan[0].mac 	rcvdPkFromLL:count 	60
attr interpolationmode  none
attr source  packetReceivedFromLower
attr title  "packets received from lower layer, count"
scalar OrionNetwork.host[24].wlan[0].mac 	rcvdPkFromLL:sum(packetBytes) 	3220
attr interpolationmode  none
attr source  packetReceivedFromLower
attr title  "packets received from lower layer, sum(packetBytes)"
scalar OrionNetwork.host[24].wlan[0].mac 	sentDownPk:count 	5
attr interpolationmode  none
attr source  packetSentToLower
attr title  "packets sent to lower layer, count"
scalar OrionNetwork.host[24].wlan[0].mac 	sentDownPk:sum(packetBytes) 	290
attr interpolationmode  none
attr source  packetSentToLower
attr title  "packets sent to lower layer, sum(packetBytes)"
scalar OrionNetwork.host[24].udpApp[0] 	"packets sent" 	5
scalar OrionNetwork.host[24].udpApp[0] 	"packets received" 	33
scalar OrionNetwork.host[24].udpApp[0] 	sentPk:count 	5
attr interpolationmode  none
attr source  sentPk
attr title  "packets sent, count"
scalar OrionNetwork.host[24].udpApp[0] 	sentPk:sum(packetBytes) 	100
attr interpolationmode  none
attr source  sentPk
attr title  "packets sent, sum(packetBytes)"
scalar OrionNetwork.host[24].udpApp[0] 	rcvdPk:count 	33
attr interpolationmode  none
attr source  rcvdPk
attr title  "packets received, count"
scalar OrionNetwork.host[24].udpApp[0] 	rcvdPk:sum(packetBytes) 	660
attr interpolationmode  none
attr source  rcvdPk
attr title  "packets received, sum(packetBytes)"
statistic OrionNetwork.host[24].udpApp[0] 	rcvdPkLifetime:stats
field count 33
field mean 0.00023256842848485
field stddev 1.8553581732431e-007
field sum 0.00767475814
field sqrsum 1.7849075411744e-006
field min 0.000232070732
field max 0.000232832338
attr interpolationmode  none
attr source  messageAge(rcvdPk)
attr title  "received packet lifetime, stats"
attr unit  s
scalar OrionNetwork.host[24].udp 	droppedPkBadChecksum:count 	0
attr interpolationmode  none
attr title  "packets dropped (checksum error), count"
scalar OrionNetwork.host[24].udp 	droppedPkWrongPort:count 	0
attr interpolationmode  none
attr title  "packets dropped (wrong port), count"
scalar OrionNetwork.host[24].udp 	passedUpPk:count 	33
attr interpolationmode  none
attr title  "packets passed up, count"
scalar OrionNetwork.host[24].udp 	sentPk:count 	5
attr interpolationmode  none
attr source  sentPk
attr title  "packets sent, count"
scalar OrionNetwork.host[24].udp 	sentPk:sum(packetBytes) 	140
attr interpolationmode  none
attr source  sentPk
attr title  "packets sent, sum(packetBytes)"
scalar OrionNetwork.host[24].udp 	rcvdPk:count 	33
attr interpolationmode  none
attr source  rcvdPk
attr title  "packets received, count"
scalar OrionNetwork.host[24].udp 	rcvdPk:sum(packetBytes) 	924
attr interpolationmode  none
attr source  rcvdPk
attr title  "packets received, sum(packetBytes)"
