version 2
run IPv4ModerateFastMobility-0-20141006-17:43:26-44744
attr configname IPv4ModerateFastMobility
attr datetime 20141006-17:43:26
attr experiment IPv4ModerateFastMobility
attr inifile omnetpp.ini
attr iterationvars ""
attr iterationvars2 $repetition=0
attr measurement ""
attr network OrionNetwork
attr processid 44744
attr repetition 0
attr replication #0
attr resultdir results
attr runnumber 0
attr seedset 0

scalar OrionNetwork 	hackForCreateResultsFolder 	0
scalar OrionNetwork.host[0].networkLayer.arp 	initiatedARPResolution:count 	0
attr title  "ARP initiated resolutions, count"
scalar OrionNetwork.host[0].networkLayer.arp 	sentReply:count 	2
attr title  "ARP replies sent, count"
scalar OrionNetwork.host[0].networkLayer.arp 	sentReq:count 	0
attr title  "ARP request sent, count"
scalar OrionNetwork.host[0].networkLayer.arp 	failedARPResolution:count 	0
attr title  "ARP failed resolutions, count"
scalar OrionNetwork.host[0].networkLayer.arp 	completedARPResolution:count 	2
attr title  "ARP completed resolutions, count"
scalar OrionNetwork.host[0].lo0.lo 	rcvdPkFromHL:count 	0
attr interpolationmode  none
attr source  packetReceivedFromUpper
attr title  "packets received from higher layer, count"
scalar OrionNetwork.host[0].lo0.lo 	rcvdPkFromHL:sum(packetBytes) 	0
attr interpolationmode  none
attr source  packetReceivedFromUpper
attr title  "packets received from higher layer, sum(packetBytes)"
scalar OrionNetwork.host[0].lo0.lo 	passedUpPk:count 	0
attr interpolationmode  none
attr source  packetSentToUpper
attr title  "packets passed to higher layer, count"
scalar OrionNetwork.host[0].lo0.lo 	passedUpPk:sum(packetBytes) 	0
attr interpolationmode  none
attr source  packetSentToUpper
attr title  "packets passed to higher layer, sum(packetBytes)"
scalar OrionNetwork.host[0].lo0.lo 	droppedPkBitError:count 	0
attr interpolationmode  none
attr source  dropPkBitError
attr title  "packets dropped/bit error, count"
scalar OrionNetwork.host[0].lo0.lo 	droppedPkBitError:sum(packetBytes) 	0
attr interpolationmode  none
attr source  dropPkBitError
attr title  "packets dropped/bit error, sum(packetBytes)"
statistic OrionNetwork.host[0].wlan[0].queue 	queueingTime:histogram
field count 17
field mean 0
field stddev 0
field sum 0
field sqrsum 0
field min 0
field max 0
attr interpolationmode  none
attr title  "queueing time, histogram"
bin	-INF	0
bin	-0.5	0
bin	-0.46666666666667	0
bin	-0.43333333333333	0
bin	-0.4	0
bin	-0.36666666666667	0
bin	-0.33333333333333	0
bin	-0.3	0
bin	-0.26666666666667	0
bin	-0.23333333333333	0
bin	-0.2	0
bin	-0.16666666666667	0
bin	-0.13333333333333	0
bin	-0.1	0
bin	-0.066666666666667	0
bin	-0.033333333333333	0
bin	-6.9388939039072e-018	17
bin	0.033333333333333	0
bin	0.066666666666667	0
bin	0.1	0
bin	0.13333333333333	0
bin	0.16666666666667	0
bin	0.2	0
bin	0.23333333333333	0
bin	0.26666666666667	0
bin	0.3	0
bin	0.33333333333333	0
bin	0.36666666666667	0
bin	0.4	0
bin	0.43333333333333	0
bin	0.46666666666667	0
bin	0.5	0
scalar OrionNetwork.host[0].wlan[0].queue 	dropPk:count 	0
attr interpolationmode  none
attr source  dropPkByQueue
attr title  "dropped packets, count"
scalar OrionNetwork.host[0].wlan[0].queue 	dropPk:sum(packetBytes) 	0
attr interpolationmode  none
attr source  dropPkByQueue
attr title  "dropped packets, sum(packetBytes)"
scalar OrionNetwork.host[0].wlan[0].queue 	queueLength:max 	0
attr interpolationmode  sample-hold
attr title  "queue length, max"
scalar OrionNetwork.host[0].wlan[0].queue 	queueLength:timeavg 	0
attr interpolationmode  sample-hold
attr title  "queue length, timeavg"
scalar OrionNetwork.host[0].wlan[0].queue 	rcvdPk:count 	17
attr interpolationmode  none
attr title  "received packets, count"
scalar OrionNetwork.host[0].wlan[0].queue 	rcvdPk:sum(packetBytes) 	776
attr interpolationmode  none
attr title  "received packets, sum(packetBytes)"
scalar OrionNetwork.host[0].wlan[0].mac 	droppedPkNotForUs:count 	8
attr interpolationmode  none
attr source  dropPkNotForUs
attr title  "packets dropped/not for us, count"
scalar OrionNetwork.host[0].wlan[0].mac 	droppedPkNotForUs:sum(packetBytes) 	384
attr interpolationmode  none
attr source  dropPkNotForUs
attr title  "packets dropped/not for us, sum(packetBytes)"
scalar OrionNetwork.host[0].wlan[0].mac 	rcvdPkFromHL:count 	17
attr interpolationmode  none
attr source  packetReceivedFromUpper
attr title  "packets received from higher layer, count"
scalar OrionNetwork.host[0].wlan[0].mac 	rcvdPkFromHL:sum(packetBytes) 	776
attr interpolationmode  none
attr source  packetReceivedFromUpper
attr title  "packets received from higher layer, sum(packetBytes)"
scalar OrionNetwork.host[0].wlan[0].mac 	passedUpPk:count 	56
attr interpolationmode  none
attr source  packetSentToUpper
attr title  "packets passed to higher layer, count"
scalar OrionNetwork.host[0].wlan[0].mac 	passedUpPk:sum(packetBytes) 	2548
attr interpolationmode  none
attr source  packetSentToUpper
attr title  "packets passed to higher layer, sum(packetBytes)"
scalar OrionNetwork.host[0].wlan[0].mac 	rcvdPkFromLL:count 	64
attr interpolationmode  none
attr source  packetReceivedFromLower
attr title  "packets received from lower layer, count"
scalar OrionNetwork.host[0].wlan[0].mac 	rcvdPkFromLL:sum(packetBytes) 	3492
attr interpolationmode  none
attr source  packetReceivedFromLower
attr title  "packets received from lower layer, sum(packetBytes)"
scalar OrionNetwork.host[0].wlan[0].mac 	sentDownPk:count 	17
attr interpolationmode  none
attr source  packetSentToLower
attr title  "packets sent to lower layer, count"
scalar OrionNetwork.host[0].wlan[0].mac 	sentDownPk:sum(packetBytes) 	946
attr interpolationmode  none
attr source  packetSentToLower
attr title  "packets sent to lower layer, sum(packetBytes)"
scalar OrionNetwork.host[0].udpApp[0] 	"packets sent" 	15
scalar OrionNetwork.host[0].udpApp[0] 	"packets received" 	50
scalar OrionNetwork.host[0].udpApp[0] 	sentPk:count 	15
attr interpolationmode  none
attr source  sentPk
attr title  "packets sent, count"
scalar OrionNetwork.host[0].udpApp[0] 	sentPk:sum(packetBytes) 	300
attr interpolationmode  none
attr source  sentPk
attr title  "packets sent, sum(packetBytes)"
scalar OrionNetwork.host[0].udpApp[0] 	rcvdPk:count 	50
attr interpolationmode  none
attr source  rcvdPk
attr title  "packets received, count"
scalar OrionNetwork.host[0].udpApp[0] 	rcvdPk:sum(packetBytes) 	920
attr interpolationmode  none
attr source  rcvdPk
attr title  "packets received, sum(packetBytes)"
statistic OrionNetwork.host[0].udpApp[0] 	rcvdPkLifetime:stats
field count 50
field mean 0.00028288600598
field stddev 0.000206676852765
field sum 0.014144300299
field sqrsum 6.0942753709392e-006
field min 0.000152604309
field max 0.001301299938
attr interpolationmode  none
attr source  messageAge(rcvdPk)
attr title  "received packet lifetime, stats"
attr unit  s
scalar OrionNetwork.host[0].udp 	droppedPkBadChecksum:count 	0
attr interpolationmode  none
attr title  "packets dropped (checksum error), count"
scalar OrionNetwork.host[0].udp 	droppedPkWrongPort:count 	3
attr interpolationmode  none
attr title  "packets dropped (wrong port), count"
scalar OrionNetwork.host[0].udp 	passedUpPk:count 	50
attr interpolationmode  none
attr title  "packets passed up, count"
scalar OrionNetwork.host[0].udp 	sentPk:count 	15
attr interpolationmode  none
attr source  sentPk
attr title  "packets sent, count"
scalar OrionNetwork.host[0].udp 	sentPk:sum(packetBytes) 	420
attr interpolationmode  none
attr source  sentPk
attr title  "packets sent, sum(packetBytes)"
scalar OrionNetwork.host[0].udp 	rcvdPk:count 	53
attr interpolationmode  none
attr source  rcvdPk
attr title  "packets received, count"
scalar OrionNetwork.host[0].udp 	rcvdPk:sum(packetBytes) 	1404
attr interpolationmode  none
attr source  rcvdPk
attr title  "packets received, sum(packetBytes)"
scalar OrionNetwork.host[1].networkLayer.arp 	initiatedARPResolution:count 	1
attr title  "ARP initiated resolutions, count"
scalar OrionNetwork.host[1].networkLayer.arp 	sentReply:count 	2
attr title  "ARP replies sent, count"
scalar OrionNetwork.host[1].networkLayer.arp 	sentReq:count 	1
attr title  "ARP request sent, count"
scalar OrionNetwork.host[1].networkLayer.arp 	failedARPResolution:count 	0
attr title  "ARP failed resolutions, count"
scalar OrionNetwork.host[1].networkLayer.arp 	completedARPResolution:count 	3
attr title  "ARP completed resolutions, count"
scalar OrionNetwork.host[1].lo0.lo 	rcvdPkFromHL:count 	0
attr interpolationmode  none
attr source  packetReceivedFromUpper
attr title  "packets received from higher layer, count"
scalar OrionNetwork.host[1].lo0.lo 	rcvdPkFromHL:sum(packetBytes) 	0
attr interpolationmode  none
attr source  packetReceivedFromUpper
attr title  "packets received from higher layer, sum(packetBytes)"
scalar OrionNetwork.host[1].lo0.lo 	passedUpPk:count 	0
attr interpolationmode  none
attr source  packetSentToUpper
attr title  "packets passed to higher layer, count"
scalar OrionNetwork.host[1].lo0.lo 	passedUpPk:sum(packetBytes) 	0
attr interpolationmode  none
attr source  packetSentToUpper
attr title  "packets passed to higher layer, sum(packetBytes)"
scalar OrionNetwork.host[1].lo0.lo 	droppedPkBitError:count 	0
attr interpolationmode  none
attr source  dropPkBitError
attr title  "packets dropped/bit error, count"
scalar OrionNetwork.host[1].lo0.lo 	droppedPkBitError:sum(packetBytes) 	0
attr interpolationmode  none
attr source  dropPkBitError
attr title  "packets dropped/bit error, sum(packetBytes)"
statistic OrionNetwork.host[1].wlan[0].queue 	queueingTime:histogram
field count 21
field mean 2.9426958952381e-005
field stddev 7.5294103200557e-005
field sum 0.000617966138
field sqrsum 1.3156890371241e-007
field min 0
field max 0.000232760419
attr interpolationmode  none
attr title  "queueing time, histogram"
bin	-INF	0
bin	-0.0001163802095	0
bin	-0.00010086284823333	0
bin	-8.5345486966667e-005	0
bin	-6.98281257e-005	0
bin	-5.4310764433333e-005	0
bin	-3.8793403166667e-005	0
bin	-2.32760419e-005	0
bin	-7.7586806333333e-006	18
bin	7.7586806333333e-006	0
bin	2.32760419e-005	0
bin	3.8793403166667e-005	0
bin	5.4310764433333e-005	0
bin	6.98281257e-005	0
bin	8.5345486966667e-005	0
bin	0.00010086284823333	0
bin	0.0001163802095	0
bin	0.00013189757076667	0
bin	0.00014741493203333	1
bin	0.0001629322933	0
bin	0.00017844965456667	0
bin	0.00019396701583333	0
bin	0.0002094843771	0
bin	0.00022500173836667	2
bin	0.00024051909963333	0
bin	0.0002560364609	0
bin	0.00027155382216667	0
bin	0.00028707118343333	0
bin	0.0003025885447	0
bin	0.00031810590596667	0
bin	0.00033362326723333	0
bin	0.0003491406285	0
scalar OrionNetwork.host[1].wlan[0].queue 	dropPk:count 	0
attr interpolationmode  none
attr source  dropPkByQueue
attr title  "dropped packets, count"
scalar OrionNetwork.host[1].wlan[0].queue 	dropPk:sum(packetBytes) 	0
attr interpolationmode  none
attr source  dropPkByQueue
attr title  "dropped packets, sum(packetBytes)"
scalar OrionNetwork.host[1].wlan[0].queue 	queueLength:max 	1
attr interpolationmode  sample-hold
attr title  "queue length, max"
scalar OrionNetwork.host[1].wlan[0].queue 	queueLength:timeavg 	1.0299435633333e-005
attr interpolationmode  sample-hold
attr title  "queue length, timeavg"
scalar OrionNetwork.host[1].wlan[0].queue 	rcvdPk:count 	21
attr interpolationmode  none
attr title  "received packets, count"
scalar OrionNetwork.host[1].wlan[0].queue 	rcvdPk:sum(packetBytes) 	888
attr interpolationmode  none
attr title  "received packets, sum(packetBytes)"
scalar OrionNetwork.host[1].wlan[0].mac 	droppedPkNotForUs:count 	6
attr interpolationmode  none
attr source  dropPkNotForUs
attr title  "packets dropped/not for us, count"
scalar OrionNetwork.host[1].wlan[0].mac 	droppedPkNotForUs:sum(packetBytes) 	288
attr interpolationmode  none
attr source  dropPkNotForUs
attr title  "packets dropped/not for us, sum(packetBytes)"
scalar OrionNetwork.host[1].wlan[0].mac 	rcvdPkFromHL:count 	21
attr interpolationmode  none
attr source  packetReceivedFromUpper
attr title  "packets received from higher layer, count"
scalar OrionNetwork.host[1].wlan[0].mac 	rcvdPkFromHL:sum(packetBytes) 	888
attr interpolationmode  none
attr source  packetReceivedFromUpper
attr title  "packets received from higher layer, sum(packetBytes)"
scalar OrionNetwork.host[1].wlan[0].mac 	passedUpPk:count 	60
attr interpolationmode  none
attr source  packetSentToUpper
attr title  "packets passed to higher layer, count"
scalar OrionNetwork.host[1].wlan[0].mac 	passedUpPk:sum(packetBytes) 	2760
attr interpolationmode  none
attr source  packetSentToUpper
attr title  "packets passed to higher layer, sum(packetBytes)"
scalar OrionNetwork.host[1].wlan[0].mac 	rcvdPkFromLL:count 	66
attr interpolationmode  none
attr source  packetReceivedFromLower
attr title  "packets received from lower layer, count"
scalar OrionNetwork.host[1].wlan[0].mac 	rcvdPkFromLL:sum(packetBytes) 	3648
attr interpolationmode  none
attr source  packetReceivedFromLower
attr title  "packets received from lower layer, sum(packetBytes)"
scalar OrionNetwork.host[1].wlan[0].mac 	sentDownPk:count 	21
attr interpolationmode  none
attr source  packetSentToLower
attr title  "packets sent to lower layer, count"
scalar OrionNetwork.host[1].wlan[0].mac 	sentDownPk:sum(packetBytes) 	1098
attr interpolationmode  none
attr source  packetSentToLower
attr title  "packets sent to lower layer, sum(packetBytes)"
scalar OrionNetwork.host[1].udpApp[0] 	"packets sent" 	10
scalar OrionNetwork.host[1].udpApp[0] 	"packets received" 	56
scalar OrionNetwork.host[1].udpApp[0] 	sentPk:count 	14
attr interpolationmode  none
attr source  sentPk
attr title  "packets sent, count"
scalar OrionNetwork.host[1].udpApp[0] 	sentPk:sum(packetBytes) 	260
attr interpolationmode  none
attr source  sentPk
attr title  "packets sent, sum(packetBytes)"
scalar OrionNetwork.host[1].udpApp[0] 	rcvdPk:count 	56
attr interpolationmode  none
attr source  rcvdPk
attr title  "packets received, count"
scalar OrionNetwork.host[1].udpApp[0] 	rcvdPk:sum(packetBytes) 	1080
attr interpolationmode  none
attr source  rcvdPk
attr title  "packets received, sum(packetBytes)"
statistic OrionNetwork.host[1].udpApp[0] 	rcvdPkLifetime:stats
field count 56
field mean 0.00025710094678571
field stddev 0.00013584391086043
field sum 0.01439765302
field sqrsum 4.7165964694162e-006
field min 0.000232111321
field max 0.001148539519
attr interpolationmode  none
attr source  messageAge(rcvdPk)
attr title  "received packet lifetime, stats"
attr unit  s
scalar OrionNetwork.host[1].udp 	droppedPkBadChecksum:count 	0
attr interpolationmode  none
attr title  "packets dropped (checksum error), count"
scalar OrionNetwork.host[1].udp 	droppedPkWrongPort:count 	0
attr interpolationmode  none
attr title  "packets dropped (wrong port), count"
scalar OrionNetwork.host[1].udp 	passedUpPk:count 	56
attr interpolationmode  none
attr title  "packets passed up, count"
scalar OrionNetwork.host[1].udp 	sentPk:count 	18
attr interpolationmode  none
attr source  sentPk
attr title  "packets sent, count"
scalar OrionNetwork.host[1].udp 	sentPk:sum(packetBytes) 	444
attr interpolationmode  none
attr source  sentPk
attr title  "packets sent, sum(packetBytes)"
scalar OrionNetwork.host[1].udp 	rcvdPk:count 	56
attr interpolationmode  none
attr source  rcvdPk
attr title  "packets received, count"
scalar OrionNetwork.host[1].udp 	rcvdPk:sum(packetBytes) 	1528
attr interpolationmode  none
attr source  rcvdPk
attr title  "packets received, sum(packetBytes)"
scalar OrionNetwork.host[2].networkLayer.arp 	initiatedARPResolution:count 	1
attr title  "ARP initiated resolutions, count"
scalar OrionNetwork.host[2].networkLayer.arp 	sentReply:count 	1
attr title  "ARP replies sent, count"
scalar OrionNetwork.host[2].networkLayer.arp 	sentReq:count 	1
attr title  "ARP request sent, count"
scalar OrionNetwork.host[2].networkLayer.arp 	failedARPResolution:count 	0
attr title  "ARP failed resolutions, count"
scalar OrionNetwork.host[2].networkLayer.arp 	completedARPResolution:count 	2
attr title  "ARP completed resolutions, count"
scalar OrionNetwork.host[2].lo0.lo 	rcvdPkFromHL:count 	0
attr interpolationmode  none
attr source  packetReceivedFromUpper
attr title  "packets received from higher layer, count"
scalar OrionNetwork.host[2].lo0.lo 	rcvdPkFromHL:sum(packetBytes) 	0
attr interpolationmode  none
attr source  packetReceivedFromUpper
attr title  "packets received from higher layer, sum(packetBytes)"
scalar OrionNetwork.host[2].lo0.lo 	passedUpPk:count 	0
attr interpolationmode  none
attr source  packetSentToUpper
attr title  "packets passed to higher layer, count"
scalar OrionNetwork.host[2].lo0.lo 	passedUpPk:sum(packetBytes) 	0
attr interpolationmode  none
attr source  packetSentToUpper
attr title  "packets passed to higher layer, sum(packetBytes)"
scalar OrionNetwork.host[2].lo0.lo 	droppedPkBitError:count 	0
attr interpolationmode  none
attr source  dropPkBitError
attr title  "packets dropped/bit error, count"
scalar OrionNetwork.host[2].lo0.lo 	droppedPkBitError:sum(packetBytes) 	0
attr interpolationmode  none
attr source  dropPkBitError
attr title  "packets dropped/bit error, sum(packetBytes)"
statistic OrionNetwork.host[2].wlan[0].queue 	queueingTime:histogram
field count 16
field mean 1.45434709375e-005
field stddev 5.817388375e-005
field sum 0.000232695535
field sqrsum 5.4147212008936e-008
field min 0
field max 0.000232695535
attr interpolationmode  none
attr title  "queueing time, histogram"
bin	-INF	0
bin	-0.0001163477675	0
bin	-0.00010083473183333	0
bin	-8.5321696166667e-005	0
bin	-6.98086605e-005	0
bin	-5.4295624833333e-005	0
bin	-3.8782589166667e-005	0
bin	-2.32695535e-005	0
bin	-7.7565178333333e-006	15
bin	7.7565178333333e-006	0
bin	2.32695535e-005	0
bin	3.8782589166667e-005	0
bin	5.4295624833333e-005	0
bin	6.98086605e-005	0
bin	8.5321696166667e-005	0
bin	0.00010083473183333	0
bin	0.0001163477675	0
bin	0.00013186080316667	0
bin	0.00014737383883333	0
bin	0.0001628868745	0
bin	0.00017839991016667	0
bin	0.00019391294583333	0
bin	0.0002094259815	0
bin	0.00022493901716667	1
bin	0.00024045205283333	0
bin	0.0002559650885	0
bin	0.00027147812416667	0
bin	0.00028699115983333	0
bin	0.0003025041955	0
bin	0.00031801723116667	0
bin	0.00033353026683333	0
bin	0.0003490433025	0
scalar OrionNetwork.host[2].wlan[0].queue 	dropPk:count 	0
attr interpolationmode  none
attr source  dropPkByQueue
attr title  "dropped packets, count"
scalar OrionNetwork.host[2].wlan[0].queue 	dropPk:sum(packetBytes) 	0
attr interpolationmode  none
attr source  dropPkByQueue
attr title  "dropped packets, sum(packetBytes)"
scalar OrionNetwork.host[2].wlan[0].queue 	queueLength:max 	1
attr interpolationmode  sample-hold
attr title  "queue length, max"
scalar OrionNetwork.host[2].wlan[0].queue 	queueLength:timeavg 	3.8782589166667e-006
attr interpolationmode  sample-hold
attr title  "queue length, timeavg"
scalar OrionNetwork.host[2].wlan[0].queue 	rcvdPk:count 	16
attr interpolationmode  none
attr title  "received packets, count"
scalar OrionNetwork.host[2].wlan[0].queue 	rcvdPk:sum(packetBytes) 	708
attr interpolationmode  none
attr title  "received packets, sum(packetBytes)"
scalar OrionNetwork.host[2].wlan[0].mac 	droppedPkNotForUs:count 	17
attr interpolationmode  none
attr source  dropPkNotForUs
attr title  "packets dropped/not for us, count"
scalar OrionNetwork.host[2].wlan[0].mac 	droppedPkNotForUs:sum(packetBytes) 	806
attr interpolationmode  none
attr source  dropPkNotForUs
attr title  "packets dropped/not for us, sum(packetBytes)"
scalar OrionNetwork.host[2].wlan[0].mac 	rcvdPkFromHL:count 	16
attr interpolationmode  none
attr source  packetReceivedFromUpper
attr title  "packets received from higher layer, count"
scalar OrionNetwork.host[2].wlan[0].mac 	rcvdPkFromHL:sum(packetBytes) 	708
attr interpolationmode  none
attr source  packetReceivedFromUpper
attr title  "packets received from higher layer, sum(packetBytes)"
scalar OrionNetwork.host[2].wlan[0].mac 	passedUpPk:count 	51
attr interpolationmode  none
attr source  packetSentToUpper
attr title  "packets passed to higher layer, count"
scalar OrionNetwork.host[2].wlan[0].mac 	passedUpPk:sum(packetBytes) 	2328
attr interpolationmode  none
attr source  packetSentToUpper
attr title  "packets passed to higher layer, sum(packetBytes)"
scalar OrionNetwork.host[2].wlan[0].mac 	rcvdPkFromLL:count 	68
attr interpolationmode  none
attr source  packetReceivedFromLower
attr title  "packets received from lower layer, count"
scalar OrionNetwork.host[2].wlan[0].mac 	rcvdPkFromLL:sum(packetBytes) 	3644
attr interpolationmode  none
attr source  packetReceivedFromLower
attr title  "packets received from lower layer, sum(packetBytes)"
scalar OrionNetwork.host[2].wlan[0].mac 	sentDownPk:count 	16
attr interpolationmode  none
attr source  packetSentToLower
attr title  "packets sent to lower layer, count"
scalar OrionNetwork.host[2].wlan[0].mac 	sentDownPk:sum(packetBytes) 	868
attr interpolationmode  none
attr source  packetSentToLower
attr title  "packets sent to lower layer, sum(packetBytes)"
scalar OrionNetwork.host[2].udpApp[0] 	"packets sent" 	11
scalar OrionNetwork.host[2].udpApp[0] 	"packets received" 	46
scalar OrionNetwork.host[2].udpApp[0] 	sentPk:count 	12
attr interpolationmode  none
attr source  sentPk
attr title  "packets sent, count"
scalar OrionNetwork.host[2].udpApp[0] 	sentPk:sum(packetBytes) 	240
attr interpolationmode  none
attr source  sentPk
attr title  "packets sent, sum(packetBytes)"
scalar OrionNetwork.host[2].udpApp[0] 	rcvdPk:count 	46
attr interpolationmode  none
attr source  rcvdPk
attr title  "packets received, count"
scalar OrionNetwork.host[2].udpApp[0] 	rcvdPk:sum(packetBytes) 	900
attr interpolationmode  none
attr source  rcvdPk
attr title  "packets received, sum(packetBytes)"
statistic OrionNetwork.host[2].udpApp[0] 	rcvdPkLifetime:stats
field count 46
field mean 0.00025595642841304
field stddev 9.7136065717091e-005
field sum 0.011773995707
field sqrsum 3.438223576149e-006
field min 0.000232061108
field max 0.000698216373
attr interpolationmode  none
attr source  messageAge(rcvdPk)
attr title  "received packet lifetime, stats"
attr unit  s
scalar OrionNetwork.host[2].udp 	droppedPkBadChecksum:count 	0
attr interpolationmode  none
attr title  "packets dropped (checksum error), count"
scalar OrionNetwork.host[2].udp 	droppedPkWrongPort:count 	0
attr interpolationmode  none
attr title  "packets dropped (wrong port), count"
scalar OrionNetwork.host[2].udp 	passedUpPk:count 	46
attr interpolationmode  none
attr title  "packets passed up, count"
scalar OrionNetwork.host[2].udp 	sentPk:count 	14
attr interpolationmode  none
attr source  sentPk
attr title  "packets sent, count"
scalar OrionNetwork.host[2].udp 	sentPk:sum(packetBytes) 	372
attr interpolationmode  none
attr source  sentPk
attr title  "packets sent, sum(packetBytes)"
scalar OrionNetwork.host[2].udp 	rcvdPk:count 	46
attr interpolationmode  none
attr source  rcvdPk
attr title  "packets received, count"
scalar OrionNetwork.host[2].udp 	rcvdPk:sum(packetBytes) 	1268
attr interpolationmode  none
attr source  rcvdPk
attr title  "packets received, sum(packetBytes)"
scalar OrionNetwork.host[3].networkLayer.arp 	initiatedARPResolution:count 	0
attr title  "ARP initiated resolutions, count"
scalar OrionNetwork.host[3].networkLayer.arp 	sentReply:count 	0
attr title  "ARP replies sent, count"
scalar OrionNetwork.host[3].networkLayer.arp 	sentReq:count 	0
attr title  "ARP request sent, count"
scalar OrionNetwork.host[3].networkLayer.arp 	failedARPResolution:count 	0
attr title  "ARP failed resolutions, count"
scalar OrionNetwork.host[3].networkLayer.arp 	completedARPResolution:count 	0
attr title  "ARP completed resolutions, count"
scalar OrionNetwork.host[3].lo0.lo 	rcvdPkFromHL:count 	0
attr interpolationmode  none
attr source  packetReceivedFromUpper
attr title  "packets received from higher layer, count"
scalar OrionNetwork.host[3].lo0.lo 	rcvdPkFromHL:sum(packetBytes) 	0
attr interpolationmode  none
attr source  packetReceivedFromUpper
attr title  "packets received from higher layer, sum(packetBytes)"
scalar OrionNetwork.host[3].lo0.lo 	passedUpPk:count 	0
attr interpolationmode  none
attr source  packetSentToUpper
attr title  "packets passed to higher layer, count"
scalar OrionNetwork.host[3].lo0.lo 	passedUpPk:sum(packetBytes) 	0
attr interpolationmode  none
attr source  packetSentToUpper
attr title  "packets passed to higher layer, sum(packetBytes)"
scalar OrionNetwork.host[3].lo0.lo 	droppedPkBitError:count 	0
attr interpolationmode  none
attr source  dropPkBitError
attr title  "packets dropped/bit error, count"
scalar OrionNetwork.host[3].lo0.lo 	droppedPkBitError:sum(packetBytes) 	0
attr interpolationmode  none
attr source  dropPkBitError
attr title  "packets dropped/bit error, sum(packetBytes)"
statistic OrionNetwork.host[3].wlan[0].queue 	queueingTime:histogram
field count 7
field mean 0
field stddev 0
field sum 0
field sqrsum 0
field min 0
field max 0
attr interpolationmode  none
attr title  "queueing time, histogram"
bin	-INF	0
bin	-0.5	0
bin	-0.46666666666667	0
bin	-0.43333333333333	0
bin	-0.4	0
bin	-0.36666666666667	0
bin	-0.33333333333333	0
bin	-0.3	0
bin	-0.26666666666667	0
bin	-0.23333333333333	0
bin	-0.2	0
bin	-0.16666666666667	0
bin	-0.13333333333333	0
bin	-0.1	0
bin	-0.066666666666667	0
bin	-0.033333333333333	0
bin	-6.9388939039072e-018	7
bin	0.033333333333333	0
bin	0.066666666666667	0
bin	0.1	0
bin	0.13333333333333	0
bin	0.16666666666667	0
bin	0.2	0
bin	0.23333333333333	0
bin	0.26666666666667	0
bin	0.3	0
bin	0.33333333333333	0
bin	0.36666666666667	0
bin	0.4	0
bin	0.43333333333333	0
bin	0.46666666666667	0
bin	0.5	0
scalar OrionNetwork.host[3].wlan[0].queue 	dropPk:count 	0
attr interpolationmode  none
attr source  dropPkByQueue
attr title  "dropped packets, count"
scalar OrionNetwork.host[3].wlan[0].queue 	dropPk:sum(packetBytes) 	0
attr interpolationmode  none
attr source  dropPkByQueue
attr title  "dropped packets, sum(packetBytes)"
scalar OrionNetwork.host[3].wlan[0].queue 	queueLength:max 	0
attr interpolationmode  sample-hold
attr title  "queue length, max"
scalar OrionNetwork.host[3].wlan[0].queue 	queueLength:timeavg 	0
attr interpolationmode  sample-hold
attr title  "queue length, timeavg"
scalar OrionNetwork.host[3].wlan[0].queue 	rcvdPk:count 	7
attr interpolationmode  none
attr title  "received packets, count"
scalar OrionNetwork.host[3].wlan[0].queue 	rcvdPk:sum(packetBytes) 	336
attr interpolationmode  none
attr title  "received packets, sum(packetBytes)"
scalar OrionNetwork.host[3].wlan[0].mac 	droppedPkNotForUs:count 	0
attr interpolationmode  none
attr source  dropPkNotForUs
attr title  "packets dropped/not for us, count"
scalar OrionNetwork.host[3].wlan[0].mac 	droppedPkNotForUs:sum(packetBytes) 	0
attr interpolationmode  none
attr source  dropPkNotForUs
attr title  "packets dropped/not for us, sum(packetBytes)"
scalar OrionNetwork.host[3].wlan[0].mac 	rcvdPkFromHL:count 	7
attr interpolationmode  none
attr source  packetReceivedFromUpper
attr title  "packets received from higher layer, count"
scalar OrionNetwork.host[3].wlan[0].mac 	rcvdPkFromHL:sum(packetBytes) 	336
attr interpolationmode  none
attr source  packetReceivedFromUpper
attr title  "packets received from higher layer, sum(packetBytes)"
scalar OrionNetwork.host[3].wlan[0].mac 	passedUpPk:count 	11
attr interpolationmode  none
attr source  packetSentToUpper
attr title  "packets passed to higher layer, count"
scalar OrionNetwork.host[3].wlan[0].mac 	passedUpPk:sum(packetBytes) 	528
attr interpolationmode  none
attr source  packetSentToUpper
attr title  "packets passed to higher layer, sum(packetBytes)"
scalar OrionNetwork.host[3].wlan[0].mac 	rcvdPkFromLL:count 	11
attr interpolationmode  none
attr source  packetReceivedFromLower
attr title  "packets received from lower layer, count"
scalar OrionNetwork.host[3].wlan[0].mac 	rcvdPkFromLL:sum(packetBytes) 	638
attr interpolationmode  none
attr source  packetReceivedFromLower
attr title  "packets received from lower layer, sum(packetBytes)"
scalar OrionNetwork.host[3].wlan[0].mac 	sentDownPk:count 	7
attr interpolationmode  none
attr source  packetSentToLower
attr title  "packets sent to lower layer, count"
scalar OrionNetwork.host[3].wlan[0].mac 	sentDownPk:sum(packetBytes) 	406
attr interpolationmode  none
attr source  packetSentToLower
attr title  "packets sent to lower layer, sum(packetBytes)"
scalar OrionNetwork.host[3].udpApp[0] 	"packets sent" 	7
scalar OrionNetwork.host[3].udpApp[0] 	"packets received" 	11
scalar OrionNetwork.host[3].udpApp[0] 	sentPk:count 	7
attr interpolationmode  none
attr source  sentPk
attr title  "packets sent, count"
scalar OrionNetwork.host[3].udpApp[0] 	sentPk:sum(packetBytes) 	140
attr interpolationmode  none
attr source  sentPk
attr title  "packets sent, sum(packetBytes)"
scalar OrionNetwork.host[3].udpApp[0] 	rcvdPk:count 	11
attr interpolationmode  none
attr source  rcvdPk
attr title  "packets received, count"
scalar OrionNetwork.host[3].udpApp[0] 	rcvdPk:sum(packetBytes) 	220
attr interpolationmode  none
attr source  rcvdPk
attr title  "packets received, sum(packetBytes)"
statistic OrionNetwork.host[3].udpApp[0] 	rcvdPkLifetime:stats
field count 11
field mean 0.00023248544363636
field stddev 2.304557034473e-007
field sum 0.00255733988
field sqrsum 5.9454482762908e-007
field min 0.000232079105
field max 0.000232721783
attr interpolationmode  none
attr source  messageAge(rcvdPk)
attr title  "received packet lifetime, stats"
attr unit  s
scalar OrionNetwork.host[3].udp 	droppedPkBadChecksum:count 	0
attr interpolationmode  none
attr title  "packets dropped (checksum error), count"
scalar OrionNetwork.host[3].udp 	droppedPkWrongPort:count 	0
attr interpolationmode  none
attr title  "packets dropped (wrong port), count"
scalar OrionNetwork.host[3].udp 	passedUpPk:count 	11
attr interpolationmode  none
attr title  "packets passed up, count"
scalar OrionNetwork.host[3].udp 	sentPk:count 	7
attr interpolationmode  none
attr source  sentPk
attr title  "packets sent, count"
scalar OrionNetwork.host[3].udp 	sentPk:sum(packetBytes) 	196
attr interpolationmode  none
attr source  sentPk
attr title  "packets sent, sum(packetBytes)"
scalar OrionNetwork.host[3].udp 	rcvdPk:count 	11
attr interpolationmode  none
attr source  rcvdPk
attr title  "packets received, count"
scalar OrionNetwork.host[3].udp 	rcvdPk:sum(packetBytes) 	308
attr interpolationmode  none
attr source  rcvdPk
attr title  "packets received, sum(packetBytes)"
scalar OrionNetwork.host[4].networkLayer.arp 	initiatedARPResolution:count 	1
attr title  "ARP initiated resolutions, count"
scalar OrionNetwork.host[4].networkLayer.arp 	sentReply:count 	0
attr title  "ARP replies sent, count"
scalar OrionNetwork.host[4].networkLayer.arp 	sentReq:count 	1
attr title  "ARP request sent, count"
scalar OrionNetwork.host[4].networkLayer.arp 	failedARPResolution:count 	0
attr title  "ARP failed resolutions, count"
scalar OrionNetwork.host[4].networkLayer.arp 	completedARPResolution:count 	2
attr title  "ARP completed resolutions, count"
scalar OrionNetwork.host[4].lo0.lo 	rcvdPkFromHL:count 	0
attr interpolationmode  none
attr source  packetReceivedFromUpper
attr title  "packets received from higher layer, count"
scalar OrionNetwork.host[4].lo0.lo 	rcvdPkFromHL:sum(packetBytes) 	0
attr interpolationmode  none
attr source  packetReceivedFromUpper
attr title  "packets received from higher layer, sum(packetBytes)"
scalar OrionNetwork.host[4].lo0.lo 	passedUpPk:count 	0
attr interpolationmode  none
attr source  packetSentToUpper
attr title  "packets passed to higher layer, count"
scalar OrionNetwork.host[4].lo0.lo 	passedUpPk:sum(packetBytes) 	0
attr interpolationmode  none
attr source  packetSentToUpper
attr title  "packets passed to higher layer, sum(packetBytes)"
scalar OrionNetwork.host[4].lo0.lo 	droppedPkBitError:count 	0
attr interpolationmode  none
attr source  dropPkBitError
attr title  "packets dropped/bit error, count"
scalar OrionNetwork.host[4].lo0.lo 	droppedPkBitError:sum(packetBytes) 	0
attr interpolationmode  none
attr source  dropPkBitError
attr title  "packets dropped/bit error, sum(packetBytes)"
statistic OrionNetwork.host[4].wlan[0].queue 	queueingTime:histogram
field count 7
field mean 3.3142857142857e-005
field stddev 8.7687757738141e-005
field sum 0.000232
field sqrsum 5.3824e-008
field min 0
field max 0.000232
attr interpolationmode  none
attr title  "queueing time, histogram"
bin	-INF	0
bin	-0.000116	0
bin	-0.00010053333333333	0
bin	-8.5066666666667e-005	0
bin	-6.96e-005	0
bin	-5.4133333333333e-005	0
bin	-3.8666666666667e-005	0
bin	-2.32e-005	0
bin	-7.7333333333333e-006	6
bin	7.7333333333333e-006	0
bin	2.32e-005	0
bin	3.8666666666667e-005	0
bin	5.4133333333333e-005	0
bin	6.96e-005	0
bin	8.5066666666667e-005	0
bin	0.00010053333333333	0
bin	0.000116	0
bin	0.00013146666666667	0
bin	0.00014693333333333	0
bin	0.0001624	0
bin	0.00017786666666667	0
bin	0.00019333333333333	0
bin	0.0002088	0
bin	0.00022426666666667	1
bin	0.00023973333333333	0
bin	0.0002552	0
bin	0.00027066666666667	0
bin	0.00028613333333333	0
bin	0.0003016	0
bin	0.00031706666666667	0
bin	0.00033253333333333	0
bin	0.000348	0
scalar OrionNetwork.host[4].wlan[0].queue 	dropPk:count 	0
attr interpolationmode  none
attr source  dropPkByQueue
attr title  "dropped packets, count"
scalar OrionNetwork.host[4].wlan[0].queue 	dropPk:sum(packetBytes) 	0
attr interpolationmode  none
attr source  dropPkByQueue
attr title  "dropped packets, sum(packetBytes)"
scalar OrionNetwork.host[4].wlan[0].queue 	queueLength:max 	1
attr interpolationmode  sample-hold
attr title  "queue length, max"
scalar OrionNetwork.host[4].wlan[0].queue 	queueLength:timeavg 	3.8666666666667e-006
attr interpolationmode  sample-hold
attr title  "queue length, timeavg"
scalar OrionNetwork.host[4].wlan[0].queue 	rcvdPk:count 	7
attr interpolationmode  none
attr title  "received packets, count"
scalar OrionNetwork.host[4].wlan[0].queue 	rcvdPk:sum(packetBytes) 	296
attr interpolationmode  none
attr title  "received packets, sum(packetBytes)"
scalar OrionNetwork.host[4].wlan[0].mac 	droppedPkNotForUs:count 	6
attr interpolationmode  none
attr source  dropPkNotForUs
attr title  "packets dropped/not for us, count"
scalar OrionNetwork.host[4].wlan[0].mac 	droppedPkNotForUs:sum(packetBytes) 	268
attr interpolationmode  none
attr source  dropPkNotForUs
attr title  "packets dropped/not for us, sum(packetBytes)"
scalar OrionNetwork.host[4].wlan[0].mac 	rcvdPkFromHL:count 	7
attr interpolationmode  none
attr source  packetReceivedFromUpper
attr title  "packets received from higher layer, count"
scalar OrionNetwork.host[4].wlan[0].mac 	rcvdPkFromHL:sum(packetBytes) 	296
attr interpolationmode  none
attr source  packetReceivedFromUpper
attr title  "packets received from higher layer, sum(packetBytes)"
scalar OrionNetwork.host[4].wlan[0].mac 	passedUpPk:count 	14
attr interpolationmode  none
attr source  packetSentToUpper
attr title  "packets passed to higher layer, count"
scalar OrionNetwork.host[4].wlan[0].mac 	passedUpPk:sum(packetBytes) 	612
attr interpolationmode  none
attr source  packetSentToUpper
attr title  "packets passed to higher layer, sum(packetBytes)"
scalar OrionNetwork.host[4].wlan[0].mac 	rcvdPkFromLL:count 	20
attr interpolationmode  none
attr source  packetReceivedFromLower
attr title  "packets received from lower layer, count"
scalar OrionNetwork.host[4].wlan[0].mac 	rcvdPkFromLL:sum(packetBytes) 	1020
attr interpolationmode  none
attr source  packetReceivedFromLower
attr title  "packets received from lower layer, sum(packetBytes)"
scalar OrionNetwork.host[4].wlan[0].mac 	sentDownPk:count 	7
attr interpolationmode  none
attr source  packetSentToLower
attr title  "packets sent to lower layer, count"
scalar OrionNetwork.host[4].wlan[0].mac 	sentDownPk:sum(packetBytes) 	366
attr interpolationmode  none
attr source  packetSentToLower
attr title  "packets sent to lower layer, sum(packetBytes)"
scalar OrionNetwork.host[4].udpApp[0] 	"packets sent" 	4
scalar OrionNetwork.host[4].udpApp[0] 	"packets received" 	11
scalar OrionNetwork.host[4].udpApp[0] 	sentPk:count 	6
attr interpolationmode  none
attr source  sentPk
attr title  "packets sent, count"
scalar OrionNetwork.host[4].udpApp[0] 	sentPk:sum(packetBytes) 	100
attr interpolationmode  none
attr source  sentPk
attr title  "packets sent, sum(packetBytes)"
scalar OrionNetwork.host[4].udpApp[0] 	rcvdPk:count 	11
attr interpolationmode  none
attr source  rcvdPk
attr title  "packets received, count"
scalar OrionNetwork.host[4].udpApp[0] 	rcvdPk:sum(packetBytes) 	220
attr interpolationmode  none
attr source  rcvdPk
attr title  "packets received, sum(packetBytes)"
statistic OrionNetwork.host[4].udpApp[0] 	rcvdPkLifetime:stats
field count 11
field mean 0.00031719055072727
field stddev 0.00028076530334901
field sum 0.003489096058
field sqrsum 1.894999855824e-006
field min 0.000232137258
field max 0.001163729546
attr interpolationmode  none
attr source  messageAge(rcvdPk)
attr title  "received packet lifetime, stats"
attr unit  s
scalar OrionNetwork.host[4].udp 	droppedPkBadChecksum:count 	0
attr interpolationmode  none
attr title  "packets dropped (checksum error), count"
scalar OrionNetwork.host[4].udp 	droppedPkWrongPort:count 	0
attr interpolationmode  none
attr title  "packets dropped (wrong port), count"
scalar OrionNetwork.host[4].udp 	passedUpPk:count 	11
attr interpolationmode  none
attr title  "packets passed up, count"
scalar OrionNetwork.host[4].udp 	sentPk:count 	6
attr interpolationmode  none
attr source  sentPk
attr title  "packets sent, count"
scalar OrionNetwork.host[4].udp 	sentPk:sum(packetBytes) 	148
attr interpolationmode  none
attr source  sentPk
attr title  "packets sent, sum(packetBytes)"
scalar OrionNetwork.host[4].udp 	rcvdPk:count 	11
attr interpolationmode  none
attr source  rcvdPk
attr title  "packets received, count"
scalar OrionNetwork.host[4].udp 	rcvdPk:sum(packetBytes) 	308
attr interpolationmode  none
attr source  rcvdPk
attr title  "packets received, sum(packetBytes)"
scalar OrionNetwork.host[5].networkLayer.arp 	initiatedARPResolution:count 	0
attr title  "ARP initiated resolutions, count"
scalar OrionNetwork.host[5].networkLayer.arp 	sentReply:count 	0
attr title  "ARP replies sent, count"
scalar OrionNetwork.host[5].networkLayer.arp 	sentReq:count 	0
attr title  "ARP request sent, count"
scalar OrionNetwork.host[5].networkLayer.arp 	failedARPResolution:count 	0
attr title  "ARP failed resolutions, count"
scalar OrionNetwork.host[5].networkLayer.arp 	completedARPResolution:count 	0
attr title  "ARP completed resolutions, count"
scalar OrionNetwork.host[5].lo0.lo 	rcvdPkFromHL:count 	0
attr interpolationmode  none
attr source  packetReceivedFromUpper
attr title  "packets received from higher layer, count"
scalar OrionNetwork.host[5].lo0.lo 	rcvdPkFromHL:sum(packetBytes) 	0
attr interpolationmode  none
attr source  packetReceivedFromUpper
attr title  "packets received from higher layer, sum(packetBytes)"
scalar OrionNetwork.host[5].lo0.lo 	passedUpPk:count 	0
attr interpolationmode  none
attr source  packetSentToUpper
attr title  "packets passed to higher layer, count"
scalar OrionNetwork.host[5].lo0.lo 	passedUpPk:sum(packetBytes) 	0
attr interpolationmode  none
attr source  packetSentToUpper
attr title  "packets passed to higher layer, sum(packetBytes)"
scalar OrionNetwork.host[5].lo0.lo 	droppedPkBitError:count 	0
attr interpolationmode  none
attr source  dropPkBitError
attr title  "packets dropped/bit error, count"
scalar OrionNetwork.host[5].lo0.lo 	droppedPkBitError:sum(packetBytes) 	0
attr interpolationmode  none
attr source  dropPkBitError
attr title  "packets dropped/bit error, sum(packetBytes)"
statistic OrionNetwork.host[5].wlan[0].queue 	queueingTime:histogram
field count 4
field mean 0
field stddev 0
field sum 0
field sqrsum 0
field min 0
field max 0
attr interpolationmode  none
attr title  "queueing time, histogram"
bin	-INF	0
bin	-0.5	0
bin	-0.46666666666667	0
bin	-0.43333333333333	0
bin	-0.4	0
bin	-0.36666666666667	0
bin	-0.33333333333333	0
bin	-0.3	0
bin	-0.26666666666667	0
bin	-0.23333333333333	0
bin	-0.2	0
bin	-0.16666666666667	0
bin	-0.13333333333333	0
bin	-0.1	0
bin	-0.066666666666667	0
bin	-0.033333333333333	0
bin	-6.9388939039072e-018	4
bin	0.033333333333333	0
bin	0.066666666666667	0
bin	0.1	0
bin	0.13333333333333	0
bin	0.16666666666667	0
bin	0.2	0
bin	0.23333333333333	0
bin	0.26666666666667	0
bin	0.3	0
bin	0.33333333333333	0
bin	0.36666666666667	0
bin	0.4	0
bin	0.43333333333333	0
bin	0.46666666666667	0
bin	0.5	0
scalar OrionNetwork.host[5].wlan[0].queue 	dropPk:count 	0
attr interpolationmode  none
attr source  dropPkByQueue
attr title  "dropped packets, count"
scalar OrionNetwork.host[5].wlan[0].queue 	dropPk:sum(packetBytes) 	0
attr interpolationmode  none
attr source  dropPkByQueue
attr title  "dropped packets, sum(packetBytes)"
scalar OrionNetwork.host[5].wlan[0].queue 	queueLength:max 	0
attr interpolationmode  sample-hold
attr title  "queue length, max"
scalar OrionNetwork.host[5].wlan[0].queue 	queueLength:timeavg 	0
attr interpolationmode  sample-hold
attr title  "queue length, timeavg"
scalar OrionNetwork.host[5].wlan[0].queue 	rcvdPk:count 	4
attr interpolationmode  none
attr title  "received packets, count"
scalar OrionNetwork.host[5].wlan[0].queue 	rcvdPk:sum(packetBytes) 	192
attr interpolationmode  none
attr title  "received packets, sum(packetBytes)"
scalar OrionNetwork.host[5].wlan[0].mac 	droppedPkNotForUs:count 	6
attr interpolationmode  none
attr source  dropPkNotForUs
attr title  "packets dropped/not for us, count"
scalar OrionNetwork.host[5].wlan[0].mac 	droppedPkNotForUs:sum(packetBytes) 	268
attr interpolationmode  none
attr source  dropPkNotForUs
attr title  "packets dropped/not for us, sum(packetBytes)"
scalar OrionNetwork.host[5].wlan[0].mac 	rcvdPkFromHL:count 	4
attr interpolationmode  none
attr source  packetReceivedFromUpper
attr title  "packets received from higher layer, count"
scalar OrionNetwork.host[5].wlan[0].mac 	rcvdPkFromHL:sum(packetBytes) 	192
attr interpolationmode  none
attr source  packetReceivedFromUpper
attr title  "packets received from higher layer, sum(packetBytes)"
scalar OrionNetwork.host[5].wlan[0].mac 	passedUpPk:count 	9
attr interpolationmode  none
attr source  packetSentToUpper
attr title  "packets passed to higher layer, count"
scalar OrionNetwork.host[5].wlan[0].mac 	passedUpPk:sum(packetBytes) 	392
attr interpolationmode  none
attr source  packetSentToUpper
attr title  "packets passed to higher layer, sum(packetBytes)"
scalar OrionNetwork.host[5].wlan[0].mac 	rcvdPkFromLL:count 	15
attr interpolationmode  none
attr source  packetReceivedFromLower
attr title  "packets received from lower layer, count"
scalar OrionNetwork.host[5].wlan[0].mac 	rcvdPkFromLL:sum(packetBytes) 	750
attr interpolationmode  none
attr source  packetReceivedFromLower
attr title  "packets received from lower layer, sum(packetBytes)"
scalar OrionNetwork.host[5].wlan[0].mac 	sentDownPk:count 	4
attr interpolationmode  none
attr source  packetSentToLower
attr title  "packets sent to lower layer, count"
scalar OrionNetwork.host[5].wlan[0].mac 	sentDownPk:sum(packetBytes) 	232
attr interpolationmode  none
attr source  packetSentToLower
attr title  "packets sent to lower layer, sum(packetBytes)"
scalar OrionNetwork.host[5].udpApp[0] 	"packets sent" 	4
scalar OrionNetwork.host[5].udpApp[0] 	"packets received" 	7
scalar OrionNetwork.host[5].udpApp[0] 	sentPk:count 	4
attr interpolationmode  none
attr source  sentPk
attr title  "packets sent, count"
scalar OrionNetwork.host[5].udpApp[0] 	sentPk:sum(packetBytes) 	80
attr interpolationmode  none
attr source  sentPk
attr title  "packets sent, sum(packetBytes)"
scalar OrionNetwork.host[5].udpApp[0] 	rcvdPk:count 	7
attr interpolationmode  none
attr source  rcvdPk
attr title  "packets received, count"
scalar OrionNetwork.host[5].udpApp[0] 	rcvdPk:sum(packetBytes) 	140
attr interpolationmode  none
attr source  rcvdPk
attr title  "packets received, sum(packetBytes)"
statistic OrionNetwork.host[5].udpApp[0] 	rcvdPkLifetime:stats
field count 7
field mean 0.00023247909642857
field stddev 2.3675522799414e-007
field sum 0.001627353675
field sqrsum 3.7832604825194e-007
field min 0.000232137258
field max 0.000232786788
attr interpolationmode  none
attr source  messageAge(rcvdPk)
attr title  "received packet lifetime, stats"
attr unit  s
scalar OrionNetwork.host[5].udp 	droppedPkBadChecksum:count 	0
attr interpolationmode  none
attr title  "packets dropped (checksum error), count"
scalar OrionNetwork.host[5].udp 	droppedPkWrongPort:count 	0
attr interpolationmode  none
attr title  "packets dropped (wrong port), count"
scalar OrionNetwork.host[5].udp 	passedUpPk:count 	7
attr interpolationmode  none
attr title  "packets passed up, count"
scalar OrionNetwork.host[5].udp 	sentPk:count 	4
attr interpolationmode  none
attr source  sentPk
attr title  "packets sent, count"
scalar OrionNetwork.host[5].udp 	sentPk:sum(packetBytes) 	112
attr interpolationmode  none
attr source  sentPk
attr title  "packets sent, sum(packetBytes)"
scalar OrionNetwork.host[5].udp 	rcvdPk:count 	7
attr interpolationmode  none
attr source  rcvdPk
attr title  "packets received, count"
scalar OrionNetwork.host[5].udp 	rcvdPk:sum(packetBytes) 	196
attr interpolationmode  none
attr source  rcvdPk
attr title  "packets received, sum(packetBytes)"
scalar OrionNetwork.host[6].networkLayer.arp 	initiatedARPResolution:count 	1
attr title  "ARP initiated resolutions, count"
scalar OrionNetwork.host[6].networkLayer.arp 	sentReply:count 	0
attr title  "ARP replies sent, count"
scalar OrionNetwork.host[6].networkLayer.arp 	sentReq:count 	1
attr title  "ARP request sent, count"
scalar OrionNetwork.host[6].networkLayer.arp 	failedARPResolution:count 	0
attr title  "ARP failed resolutions, count"
scalar OrionNetwork.host[6].networkLayer.arp 	completedARPResolution:count 	2
attr title  "ARP completed resolutions, count"
scalar OrionNetwork.host[6].lo0.lo 	rcvdPkFromHL:count 	0
attr interpolationmode  none
attr source  packetReceivedFromUpper
attr title  "packets received from higher layer, count"
scalar OrionNetwork.host[6].lo0.lo 	rcvdPkFromHL:sum(packetBytes) 	0
attr interpolationmode  none
attr source  packetReceivedFromUpper
attr title  "packets received from higher layer, sum(packetBytes)"
scalar OrionNetwork.host[6].lo0.lo 	passedUpPk:count 	0
attr interpolationmode  none
attr source  packetSentToUpper
attr title  "packets passed to higher layer, count"
scalar OrionNetwork.host[6].lo0.lo 	passedUpPk:sum(packetBytes) 	0
attr interpolationmode  none
attr source  packetSentToUpper
attr title  "packets passed to higher layer, sum(packetBytes)"
scalar OrionNetwork.host[6].lo0.lo 	droppedPkBitError:count 	0
attr interpolationmode  none
attr source  dropPkBitError
attr title  "packets dropped/bit error, count"
scalar OrionNetwork.host[6].lo0.lo 	droppedPkBitError:sum(packetBytes) 	0
attr interpolationmode  none
attr source  dropPkBitError
attr title  "packets dropped/bit error, sum(packetBytes)"
statistic OrionNetwork.host[6].wlan[0].queue 	queueingTime:histogram
field count 7
field mean 3.3142857142857e-005
field stddev 8.7687757738141e-005
field sum 0.000232
field sqrsum 5.3824e-008
field min 0
field max 0.000232
attr interpolationmode  none
attr title  "queueing time, histogram"
bin	-INF	0
bin	-0.000116	0
bin	-0.00010053333333333	0
bin	-8.5066666666667e-005	0
bin	-6.96e-005	0
bin	-5.4133333333333e-005	0
bin	-3.8666666666667e-005	0
bin	-2.32e-005	0
bin	-7.7333333333333e-006	6
bin	7.7333333333333e-006	0
bin	2.32e-005	0
bin	3.8666666666667e-005	0
bin	5.4133333333333e-005	0
bin	6.96e-005	0
bin	8.5066666666667e-005	0
bin	0.00010053333333333	0
bin	0.000116	0
bin	0.00013146666666667	0
bin	0.00014693333333333	0
bin	0.0001624	0
bin	0.00017786666666667	0
bin	0.00019333333333333	0
bin	0.0002088	0
bin	0.00022426666666667	1
bin	0.00023973333333333	0
bin	0.0002552	0
bin	0.00027066666666667	0
bin	0.00028613333333333	0
bin	0.0003016	0
bin	0.00031706666666667	0
bin	0.00033253333333333	0
bin	0.000348	0
scalar OrionNetwork.host[6].wlan[0].queue 	dropPk:count 	0
attr interpolationmode  none
attr source  dropPkByQueue
attr title  "dropped packets, count"
scalar OrionNetwork.host[6].wlan[0].queue 	dropPk:sum(packetBytes) 	0
attr interpolationmode  none
attr source  dropPkByQueue
attr title  "dropped packets, sum(packetBytes)"
scalar OrionNetwork.host[6].wlan[0].queue 	queueLength:max 	1
attr interpolationmode  sample-hold
attr title  "queue length, max"
scalar OrionNetwork.host[6].wlan[0].queue 	queueLength:timeavg 	3.8666666666667e-006
attr interpolationmode  sample-hold
attr title  "queue length, timeavg"
scalar OrionNetwork.host[6].wlan[0].queue 	rcvdPk:count 	7
attr interpolationmode  none
attr title  "received packets, count"
scalar OrionNetwork.host[6].wlan[0].queue 	rcvdPk:sum(packetBytes) 	296
attr interpolationmode  none
attr title  "received packets, sum(packetBytes)"
scalar OrionNetwork.host[6].wlan[0].mac 	droppedPkNotForUs:count 	1
attr interpolationmode  none
attr source  dropPkNotForUs
attr title  "packets dropped/not for us, count"
scalar OrionNetwork.host[6].wlan[0].mac 	droppedPkNotForUs:sum(packetBytes) 	38
attr interpolationmode  none
attr source  dropPkNotForUs
attr title  "packets dropped/not for us, sum(packetBytes)"
scalar OrionNetwork.host[6].wlan[0].mac 	rcvdPkFromHL:count 	7
attr interpolationmode  none
attr source  packetReceivedFromUpper
attr title  "packets received from higher layer, count"
scalar OrionNetwork.host[6].wlan[0].mac 	rcvdPkFromHL:sum(packetBytes) 	296
attr interpolationmode  none
attr source  packetReceivedFromUpper
attr title  "packets received from higher layer, sum(packetBytes)"
scalar OrionNetwork.host[6].wlan[0].mac 	passedUpPk:count 	9
attr interpolationmode  none
attr source  packetSentToUpper
attr title  "packets passed to higher layer, count"
scalar OrionNetwork.host[6].wlan[0].mac 	passedUpPk:sum(packetBytes) 	392
attr interpolationmode  none
attr source  packetSentToUpper
attr title  "packets passed to higher layer, sum(packetBytes)"
scalar OrionNetwork.host[6].wlan[0].mac 	rcvdPkFromLL:count 	10
attr interpolationmode  none
attr source  packetReceivedFromLower
attr title  "packets received from lower layer, count"
scalar OrionNetwork.host[6].wlan[0].mac 	rcvdPkFromLL:sum(packetBytes) 	520
attr interpolationmode  none
attr source  packetReceivedFromLower
attr title  "packets received from lower layer, sum(packetBytes)"
scalar OrionNetwork.host[6].wlan[0].mac 	sentDownPk:count 	7
attr interpolationmode  none
attr source  packetSentToLower
attr title  "packets sent to lower layer, count"
scalar OrionNetwork.host[6].wlan[0].mac 	sentDownPk:sum(packetBytes) 	366
attr interpolationmode  none
attr source  packetSentToLower
attr title  "packets sent to lower layer, sum(packetBytes)"
scalar OrionNetwork.host[6].udpApp[0] 	"packets sent" 	5
scalar OrionNetwork.host[6].udpApp[0] 	"packets received" 	7
scalar OrionNetwork.host[6].udpApp[0] 	sentPk:count 	6
attr interpolationmode  none
attr source  sentPk
attr title  "packets sent, count"
scalar OrionNetwork.host[6].udpApp[0] 	sentPk:sum(packetBytes) 	100
attr interpolationmode  none
attr source  sentPk
attr title  "packets sent, sum(packetBytes)"
scalar OrionNetwork.host[6].udpApp[0] 	rcvdPk:count 	7
attr interpolationmode  none
attr source  rcvdPk
attr title  "packets received, count"
scalar OrionNetwork.host[6].udpApp[0] 	rcvdPk:sum(packetBytes) 	140
attr interpolationmode  none
attr source  rcvdPk
attr title  "packets received, sum(packetBytes)"
statistic OrionNetwork.host[6].udpApp[0] 	rcvdPkLifetime:stats
field count 7
field mean 0.00023256208285714
field stddev 2.4453236367482e-007
field sum 0.00162793458
field sqrsum 3.7859621545643e-007
field min 0.000232102262
field max 0.000232798248
attr interpolationmode  none
attr source  messageAge(rcvdPk)
attr title  "received packet lifetime, stats"
attr unit  s
scalar OrionNetwork.host[6].udp 	droppedPkBadChecksum:count 	0
attr interpolationmode  none
attr title  "packets dropped (checksum error), count"
scalar OrionNetwork.host[6].udp 	droppedPkWrongPort:count 	0
attr interpolationmode  none
attr title  "packets dropped (wrong port), count"
scalar OrionNetwork.host[6].udp 	passedUpPk:count 	7
attr interpolationmode  none
attr title  "packets passed up, count"
scalar OrionNetwork.host[6].udp 	sentPk:count 	6
attr interpolationmode  none
attr source  sentPk
attr title  "packets sent, count"
scalar OrionNetwork.host[6].udp 	sentPk:sum(packetBytes) 	148
attr interpolationmode  none
attr source  sentPk
attr title  "packets sent, sum(packetBytes)"
scalar OrionNetwork.host[6].udp 	rcvdPk:count 	7
attr interpolationmode  none
attr source  rcvdPk
attr title  "packets received, count"
scalar OrionNetwork.host[6].udp 	rcvdPk:sum(packetBytes) 	196
attr interpolationmode  none
attr source  rcvdPk
attr title  "packets received, sum(packetBytes)"
scalar OrionNetwork.host[7].networkLayer.arp 	initiatedARPResolution:count 	0
attr title  "ARP initiated resolutions, count"
scalar OrionNetwork.host[7].networkLayer.arp 	sentReply:count 	0
attr title  "ARP replies sent, count"
scalar OrionNetwork.host[7].networkLayer.arp 	sentReq:count 	0
attr title  "ARP request sent, count"
scalar OrionNetwork.host[7].networkLayer.arp 	failedARPResolution:count 	0
attr title  "ARP failed resolutions, count"
scalar OrionNetwork.host[7].networkLayer.arp 	completedARPResolution:count 	0
attr title  "ARP completed resolutions, count"
scalar OrionNetwork.host[7].lo0.lo 	rcvdPkFromHL:count 	0
attr interpolationmode  none
attr source  packetReceivedFromUpper
attr title  "packets received from higher layer, count"
scalar OrionNetwork.host[7].lo0.lo 	rcvdPkFromHL:sum(packetBytes) 	0
attr interpolationmode  none
attr source  packetReceivedFromUpper
attr title  "packets received from higher layer, sum(packetBytes)"
scalar OrionNetwork.host[7].lo0.lo 	passedUpPk:count 	0
attr interpolationmode  none
attr source  packetSentToUpper
attr title  "packets passed to higher layer, count"
scalar OrionNetwork.host[7].lo0.lo 	passedUpPk:sum(packetBytes) 	0
attr interpolationmode  none
attr source  packetSentToUpper
attr title  "packets passed to higher layer, sum(packetBytes)"
scalar OrionNetwork.host[7].lo0.lo 	droppedPkBitError:count 	0
attr interpolationmode  none
attr source  dropPkBitError
attr title  "packets dropped/bit error, count"
scalar OrionNetwork.host[7].lo0.lo 	droppedPkBitError:sum(packetBytes) 	0
attr interpolationmode  none
attr source  dropPkBitError
attr title  "packets dropped/bit error, sum(packetBytes)"
statistic OrionNetwork.host[7].wlan[0].queue 	queueingTime:histogram
field count 11
field mean 0
field stddev 0
field sum 0
field sqrsum 0
field min 0
field max 0
attr interpolationmode  none
attr title  "queueing time, histogram"
bin	-INF	0
bin	-0.5	0
bin	-0.46666666666667	0
bin	-0.43333333333333	0
bin	-0.4	0
bin	-0.36666666666667	0
bin	-0.33333333333333	0
bin	-0.3	0
bin	-0.26666666666667	0
bin	-0.23333333333333	0
bin	-0.2	0
bin	-0.16666666666667	0
bin	-0.13333333333333	0
bin	-0.1	0
bin	-0.066666666666667	0
bin	-0.033333333333333	0
bin	-6.9388939039072e-018	11
bin	0.033333333333333	0
bin	0.066666666666667	0
bin	0.1	0
bin	0.13333333333333	0
bin	0.16666666666667	0
bin	0.2	0
bin	0.23333333333333	0
bin	0.26666666666667	0
bin	0.3	0
bin	0.33333333333333	0
bin	0.36666666666667	0
bin	0.4	0
bin	0.43333333333333	0
bin	0.46666666666667	0
bin	0.5	0
scalar OrionNetwork.host[7].wlan[0].queue 	dropPk:count 	0
attr interpolationmode  none
attr source  dropPkByQueue
attr title  "dropped packets, count"
scalar OrionNetwork.host[7].wlan[0].queue 	dropPk:sum(packetBytes) 	0
attr interpolationmode  none
attr source  dropPkByQueue
attr title  "dropped packets, sum(packetBytes)"
scalar OrionNetwork.host[7].wlan[0].queue 	queueLength:max 	0
attr interpolationmode  sample-hold
attr title  "queue length, max"
scalar OrionNetwork.host[7].wlan[0].queue 	queueLength:timeavg 	0
attr interpolationmode  sample-hold
attr title  "queue length, timeavg"
scalar OrionNetwork.host[7].wlan[0].queue 	rcvdPk:count 	11
attr interpolationmode  none
attr title  "received packets, count"
scalar OrionNetwork.host[7].wlan[0].queue 	rcvdPk:sum(packetBytes) 	528
attr interpolationmode  none
attr title  "received packets, sum(packetBytes)"
scalar OrionNetwork.host[7].wlan[0].mac 	droppedPkNotForUs:count 	22
attr interpolationmode  none
attr source  dropPkNotForUs
attr title  "packets dropped/not for us, count"
scalar OrionNetwork.host[7].wlan[0].mac 	droppedPkNotForUs:sum(packetBytes) 	1076
attr interpolationmode  none
attr source  dropPkNotForUs
attr title  "packets dropped/not for us, sum(packetBytes)"
scalar OrionNetwork.host[7].wlan[0].mac 	rcvdPkFromHL:count 	11
attr interpolationmode  none
attr source  packetReceivedFromUpper
attr title  "packets received from higher layer, count"
scalar OrionNetwork.host[7].wlan[0].mac 	rcvdPkFromHL:sum(packetBytes) 	528
attr interpolationmode  none
attr source  packetReceivedFromUpper
attr title  "packets received from higher layer, sum(packetBytes)"
scalar OrionNetwork.host[7].wlan[0].mac 	passedUpPk:count 	60
attr interpolationmode  none
attr source  packetSentToUpper
attr title  "packets passed to higher layer, count"
scalar OrionNetwork.host[7].wlan[0].mac 	passedUpPk:sum(packetBytes) 	2820
attr interpolationmode  none
attr source  packetSentToUpper
attr title  "packets passed to higher layer, sum(packetBytes)"
scalar OrionNetwork.host[7].wlan[0].mac 	rcvdPkFromLL:count 	82
attr interpolationmode  none
attr source  packetReceivedFromLower
attr title  "packets received from lower layer, count"
scalar OrionNetwork.host[7].wlan[0].mac 	rcvdPkFromLL:sum(packetBytes) 	4496
attr interpolationmode  none
attr source  packetReceivedFromLower
attr title  "packets received from lower layer, sum(packetBytes)"
scalar OrionNetwork.host[7].wlan[0].mac 	sentDownPk:count 	11
attr interpolationmode  none
attr source  packetSentToLower
attr title  "packets sent to lower layer, count"
scalar OrionNetwork.host[7].wlan[0].mac 	sentDownPk:sum(packetBytes) 	638
attr interpolationmode  none
attr source  packetSentToLower
attr title  "packets sent to lower layer, sum(packetBytes)"
scalar OrionNetwork.host[7].udpApp[0] 	"packets sent" 	11
scalar OrionNetwork.host[7].udpApp[0] 	"packets received" 	57
scalar OrionNetwork.host[7].udpApp[0] 	sentPk:count 	11
attr interpolationmode  none
attr source  sentPk
attr title  "packets sent, count"
scalar OrionNetwork.host[7].udpApp[0] 	sentPk:sum(packetBytes) 	220
attr interpolationmode  none
attr source  sentPk
attr title  "packets sent, sum(packetBytes)"
scalar OrionNetwork.host[7].udpApp[0] 	rcvdPk:count 	57
attr interpolationmode  none
attr source  rcvdPk
attr title  "packets received, count"
scalar OrionNetwork.host[7].udpApp[0] 	rcvdPk:sum(packetBytes) 	1140
attr interpolationmode  none
attr source  rcvdPk
attr title  "packets received, sum(packetBytes)"
statistic OrionNetwork.host[7].udpApp[0] 	rcvdPkLifetime:stats
field count 57
field mean 0.00023528594233333
field stddev 2.0227486519512e-005
field sum 0.013411298713
field sqrsum 3.1784025234123e-006
field min 0.00023218693
field max 0.000385317321
attr interpolationmode  none
attr source  messageAge(rcvdPk)
attr title  "received packet lifetime, stats"
attr unit  s
scalar OrionNetwork.host[7].udp 	droppedPkBadChecksum:count 	0
attr interpolationmode  none
attr title  "packets dropped (checksum error), count"
scalar OrionNetwork.host[7].udp 	droppedPkWrongPort:count 	0
attr interpolationmode  none
attr title  "packets dropped (wrong port), count"
scalar OrionNetwork.host[7].udp 	passedUpPk:count 	57
attr interpolationmode  none
attr title  "packets passed up, count"
scalar OrionNetwork.host[7].udp 	sentPk:count 	11
attr interpolationmode  none
attr source  sentPk
attr title  "packets sent, count"
scalar OrionNetwork.host[7].udp 	sentPk:sum(packetBytes) 	308
attr interpolationmode  none
attr source  sentPk
attr title  "packets sent, sum(packetBytes)"
scalar OrionNetwork.host[7].udp 	rcvdPk:count 	57
attr interpolationmode  none
attr source  rcvdPk
attr title  "packets received, count"
scalar OrionNetwork.host[7].udp 	rcvdPk:sum(packetBytes) 	1596
attr interpolationmode  none
attr source  rcvdPk
attr title  "packets received, sum(packetBytes)"
scalar OrionNetwork.host[8].networkLayer.arp 	initiatedARPResolution:count 	0
attr title  "ARP initiated resolutions, count"
scalar OrionNetwork.host[8].networkLayer.arp 	sentReply:count 	0
attr title  "ARP replies sent, count"
scalar OrionNetwork.host[8].networkLayer.arp 	sentReq:count 	0
attr title  "ARP request sent, count"
scalar OrionNetwork.host[8].networkLayer.arp 	failedARPResolution:count 	0
attr title  "ARP failed resolutions, count"
scalar OrionNetwork.host[8].networkLayer.arp 	completedARPResolution:count 	0
attr title  "ARP completed resolutions, count"
scalar OrionNetwork.host[8].lo0.lo 	rcvdPkFromHL:count 	0
attr interpolationmode  none
attr source  packetReceivedFromUpper
attr title  "packets received from higher layer, count"
scalar OrionNetwork.host[8].lo0.lo 	rcvdPkFromHL:sum(packetBytes) 	0
attr interpolationmode  none
attr source  packetReceivedFromUpper
attr title  "packets received from higher layer, sum(packetBytes)"
scalar OrionNetwork.host[8].lo0.lo 	passedUpPk:count 	0
attr interpolationmode  none
attr source  packetSentToUpper
attr title  "packets passed to higher layer, count"
scalar OrionNetwork.host[8].lo0.lo 	passedUpPk:sum(packetBytes) 	0
attr interpolationmode  none
attr source  packetSentToUpper
attr title  "packets passed to higher layer, sum(packetBytes)"
scalar OrionNetwork.host[8].lo0.lo 	droppedPkBitError:count 	0
attr interpolationmode  none
attr source  dropPkBitError
attr title  "packets dropped/bit error, count"
scalar OrionNetwork.host[8].lo0.lo 	droppedPkBitError:sum(packetBytes) 	0
attr interpolationmode  none
attr source  dropPkBitError
attr title  "packets dropped/bit error, sum(packetBytes)"
statistic OrionNetwork.host[8].wlan[0].queue 	queueingTime:histogram
field count 7
field mean 0
field stddev 0
field sum 0
field sqrsum 0
field min 0
field max 0
attr interpolationmode  none
attr title  "queueing time, histogram"
bin	-INF	0
bin	-0.5	0
bin	-0.46666666666667	0
bin	-0.43333333333333	0
bin	-0.4	0
bin	-0.36666666666667	0
bin	-0.33333333333333	0
bin	-0.3	0
bin	-0.26666666666667	0
bin	-0.23333333333333	0
bin	-0.2	0
bin	-0.16666666666667	0
bin	-0.13333333333333	0
bin	-0.1	0
bin	-0.066666666666667	0
bin	-0.033333333333333	0
bin	-6.9388939039072e-018	7
bin	0.033333333333333	0
bin	0.066666666666667	0
bin	0.1	0
bin	0.13333333333333	0
bin	0.16666666666667	0
bin	0.2	0
bin	0.23333333333333	0
bin	0.26666666666667	0
bin	0.3	0
bin	0.33333333333333	0
bin	0.36666666666667	0
bin	0.4	0
bin	0.43333333333333	0
bin	0.46666666666667	0
bin	0.5	0
scalar OrionNetwork.host[8].wlan[0].queue 	dropPk:count 	0
attr interpolationmode  none
attr source  dropPkByQueue
attr title  "dropped packets, count"
scalar OrionNetwork.host[8].wlan[0].queue 	dropPk:sum(packetBytes) 	0
attr interpolationmode  none
attr source  dropPkByQueue
attr title  "dropped packets, sum(packetBytes)"
scalar OrionNetwork.host[8].wlan[0].queue 	queueLength:max 	0
attr interpolationmode  sample-hold
attr title  "queue length, max"
scalar OrionNetwork.host[8].wlan[0].queue 	queueLength:timeavg 	0
attr interpolationmode  sample-hold
attr title  "queue length, timeavg"
scalar OrionNetwork.host[8].wlan[0].queue 	rcvdPk:count 	7
attr interpolationmode  none
attr title  "received packets, count"
scalar OrionNetwork.host[8].wlan[0].queue 	rcvdPk:sum(packetBytes) 	336
attr interpolationmode  none
attr title  "received packets, sum(packetBytes)"
scalar OrionNetwork.host[8].wlan[0].mac 	droppedPkNotForUs:count 	0
attr interpolationmode  none
attr source  dropPkNotForUs
attr title  "packets dropped/not for us, count"
scalar OrionNetwork.host[8].wlan[0].mac 	droppedPkNotForUs:sum(packetBytes) 	0
attr interpolationmode  none
attr source  dropPkNotForUs
attr title  "packets dropped/not for us, sum(packetBytes)"
scalar OrionNetwork.host[8].wlan[0].mac 	rcvdPkFromHL:count 	7
attr interpolationmode  none
attr source  packetReceivedFromUpper
attr title  "packets received from higher layer, count"
scalar OrionNetwork.host[8].wlan[0].mac 	rcvdPkFromHL:sum(packetBytes) 	336
attr interpolationmode  none
attr source  packetReceivedFromUpper
attr title  "packets received from higher layer, sum(packetBytes)"
scalar OrionNetwork.host[8].wlan[0].mac 	passedUpPk:count 	15
attr interpolationmode  none
attr source  packetSentToUpper
attr title  "packets passed to higher layer, count"
scalar OrionNetwork.host[8].wlan[0].mac 	passedUpPk:sum(packetBytes) 	720
attr interpolationmode  none
attr source  packetSentToUpper
attr title  "packets passed to higher layer, sum(packetBytes)"
scalar OrionNetwork.host[8].wlan[0].mac 	rcvdPkFromLL:count 	15
attr interpolationmode  none
attr source  packetReceivedFromLower
attr title  "packets received from lower layer, count"
scalar OrionNetwork.host[8].wlan[0].mac 	rcvdPkFromLL:sum(packetBytes) 	870
attr interpolationmode  none
attr source  packetReceivedFromLower
attr title  "packets received from lower layer, sum(packetBytes)"
scalar OrionNetwork.host[8].wlan[0].mac 	sentDownPk:count 	7
attr interpolationmode  none
attr source  packetSentToLower
attr title  "packets sent to lower layer, count"
scalar OrionNetwork.host[8].wlan[0].mac 	sentDownPk:sum(packetBytes) 	406
attr interpolationmode  none
attr source  packetSentToLower
attr title  "packets sent to lower layer, sum(packetBytes)"
scalar OrionNetwork.host[8].udpApp[0] 	"packets sent" 	7
scalar OrionNetwork.host[8].udpApp[0] 	"packets received" 	15
scalar OrionNetwork.host[8].udpApp[0] 	sentPk:count 	7
attr interpolationmode  none
attr source  sentPk
attr title  "packets sent, count"
scalar OrionNetwork.host[8].udpApp[0] 	sentPk:sum(packetBytes) 	140
attr interpolationmode  none
attr source  sentPk
attr title  "packets sent, sum(packetBytes)"
scalar OrionNetwork.host[8].udpApp[0] 	rcvdPk:count 	15
attr interpolationmode  none
attr source  rcvdPk
attr title  "packets received, count"
scalar OrionNetwork.host[8].udpApp[0] 	rcvdPk:sum(packetBytes) 	300
attr interpolationmode  none
attr source  rcvdPk
attr title  "packets received, sum(packetBytes)"
statistic OrionNetwork.host[8].udpApp[0] 	rcvdPkLifetime:stats
field count 15
field mean 0.000232631325
field stddev 1.7770869317457e-007
field sum 0.003489469875
field sqrsum 8.1176044269415e-007
field min 0.000232204733
field max 0.000232785593
attr interpolationmode  none
attr source  messageAge(rcvdPk)
attr title  "received packet lifetime, stats"
attr unit  s
scalar OrionNetwork.host[8].udp 	droppedPkBadChecksum:count 	0
attr interpolationmode  none
attr title  "packets dropped (checksum error), count"
scalar OrionNetwork.host[8].udp 	droppedPkWrongPort:count 	0
attr interpolationmode  none
attr title  "packets dropped (wrong port), count"
scalar OrionNetwork.host[8].udp 	passedUpPk:count 	15
attr interpolationmode  none
attr title  "packets passed up, count"
scalar OrionNetwork.host[8].udp 	sentPk:count 	7
attr interpolationmode  none
attr source  sentPk
attr title  "packets sent, count"
scalar OrionNetwork.host[8].udp 	sentPk:sum(packetBytes) 	196
attr interpolationmode  none
attr source  sentPk
attr title  "packets sent, sum(packetBytes)"
scalar OrionNetwork.host[8].udp 	rcvdPk:count 	15
attr interpolationmode  none
attr source  rcvdPk
attr title  "packets received, count"
scalar OrionNetwork.host[8].udp 	rcvdPk:sum(packetBytes) 	420
attr interpolationmode  none
attr source  rcvdPk
attr title  "packets received, sum(packetBytes)"
scalar OrionNetwork.host[9].networkLayer.arp 	initiatedARPResolution:count 	1
attr title  "ARP initiated resolutions, count"
scalar OrionNetwork.host[9].networkLayer.arp 	sentReply:count 	1
attr title  "ARP replies sent, count"
scalar OrionNetwork.host[9].networkLayer.arp 	sentReq:count 	1
attr title  "ARP request sent, count"
scalar OrionNetwork.host[9].networkLayer.arp 	failedARPResolution:count 	0
attr title  "ARP failed resolutions, count"
scalar OrionNetwork.host[9].networkLayer.arp 	completedARPResolution:count 	2
attr title  "ARP completed resolutions, count"
scalar OrionNetwork.host[9].lo0.lo 	rcvdPkFromHL:count 	0
attr interpolationmode  none
attr source  packetReceivedFromUpper
attr title  "packets received from higher layer, count"
scalar OrionNetwork.host[9].lo0.lo 	rcvdPkFromHL:sum(packetBytes) 	0
attr interpolationmode  none
attr source  packetReceivedFromUpper
attr title  "packets received from higher layer, sum(packetBytes)"
scalar OrionNetwork.host[9].lo0.lo 	passedUpPk:count 	0
attr interpolationmode  none
attr source  packetSentToUpper
attr title  "packets passed to higher layer, count"
scalar OrionNetwork.host[9].lo0.lo 	passedUpPk:sum(packetBytes) 	0
attr interpolationmode  none
attr source  packetSentToUpper
attr title  "packets passed to higher layer, sum(packetBytes)"
scalar OrionNetwork.host[9].lo0.lo 	droppedPkBitError:count 	0
attr interpolationmode  none
attr source  dropPkBitError
attr title  "packets dropped/bit error, count"
scalar OrionNetwork.host[9].lo0.lo 	droppedPkBitError:sum(packetBytes) 	0
attr interpolationmode  none
attr source  dropPkBitError
attr title  "packets dropped/bit error, sum(packetBytes)"
statistic OrionNetwork.host[9].wlan[0].queue 	queueingTime:histogram
field count 10
field mean 0
field stddev 0
field sum 0
field sqrsum 0
field min 0
field max 0
attr interpolationmode  none
attr title  "queueing time, histogram"
bin	-INF	0
bin	-0.5	0
bin	-0.46666666666667	0
bin	-0.43333333333333	0
bin	-0.4	0
bin	-0.36666666666667	0
bin	-0.33333333333333	0
bin	-0.3	0
bin	-0.26666666666667	0
bin	-0.23333333333333	0
bin	-0.2	0
bin	-0.16666666666667	0
bin	-0.13333333333333	0
bin	-0.1	0
bin	-0.066666666666667	0
bin	-0.033333333333333	0
bin	-6.9388939039072e-018	10
bin	0.033333333333333	0
bin	0.066666666666667	0
bin	0.1	0
bin	0.13333333333333	0
bin	0.16666666666667	0
bin	0.2	0
bin	0.23333333333333	0
bin	0.26666666666667	0
bin	0.3	0
bin	0.33333333333333	0
bin	0.36666666666667	0
bin	0.4	0
bin	0.43333333333333	0
bin	0.46666666666667	0
bin	0.5	0
scalar OrionNetwork.host[9].wlan[0].queue 	dropPk:count 	0
attr interpolationmode  none
attr source  dropPkByQueue
attr title  "dropped packets, count"
scalar OrionNetwork.host[9].wlan[0].queue 	dropPk:sum(packetBytes) 	0
attr interpolationmode  none
attr source  dropPkByQueue
attr title  "dropped packets, sum(packetBytes)"
scalar OrionNetwork.host[9].wlan[0].queue 	queueLength:max 	0
attr interpolationmode  sample-hold
attr title  "queue length, max"
scalar OrionNetwork.host[9].wlan[0].queue 	queueLength:timeavg 	0
attr interpolationmode  sample-hold
attr title  "queue length, timeavg"
scalar OrionNetwork.host[9].wlan[0].queue 	rcvdPk:count 	10
attr interpolationmode  none
attr title  "received packets, count"
scalar OrionNetwork.host[9].wlan[0].queue 	rcvdPk:sum(packetBytes) 	420
attr interpolationmode  none
attr title  "received packets, sum(packetBytes)"
scalar OrionNetwork.host[9].wlan[0].mac 	droppedPkNotForUs:count 	3
attr interpolationmode  none
attr source  dropPkNotForUs
attr title  "packets dropped/not for us, count"
scalar OrionNetwork.host[9].wlan[0].mac 	droppedPkNotForUs:sum(packetBytes) 	134
attr interpolationmode  none
attr source  dropPkNotForUs
attr title  "packets dropped/not for us, sum(packetBytes)"
scalar OrionNetwork.host[9].wlan[0].mac 	rcvdPkFromHL:count 	10
attr interpolationmode  none
attr source  packetReceivedFromUpper
attr title  "packets received from higher layer, count"
scalar OrionNetwork.host[9].wlan[0].mac 	rcvdPkFromHL:sum(packetBytes) 	420
attr interpolationmode  none
attr source  packetReceivedFromUpper
attr title  "packets received from higher layer, sum(packetBytes)"
scalar OrionNetwork.host[9].wlan[0].mac 	passedUpPk:count 	22
attr interpolationmode  none
attr source  packetSentToUpper
attr title  "packets passed to higher layer, count"
scalar OrionNetwork.host[9].wlan[0].mac 	passedUpPk:sum(packetBytes) 	976
attr interpolationmode  none
attr source  packetSentToUpper
attr title  "packets passed to higher layer, sum(packetBytes)"
scalar OrionNetwork.host[9].wlan[0].mac 	rcvdPkFromLL:count 	25
attr interpolationmode  none
attr source  packetReceivedFromLower
attr title  "packets received from lower layer, count"
scalar OrionNetwork.host[9].wlan[0].mac 	rcvdPkFromLL:sum(packetBytes) 	1330
attr interpolationmode  none
attr source  packetReceivedFromLower
attr title  "packets received from lower layer, sum(packetBytes)"
scalar OrionNetwork.host[9].wlan[0].mac 	sentDownPk:count 	10
attr interpolationmode  none
attr source  packetSentToLower
attr title  "packets sent to lower layer, count"
scalar OrionNetwork.host[9].wlan[0].mac 	sentDownPk:sum(packetBytes) 	520
attr interpolationmode  none
attr source  packetSentToLower
attr title  "packets sent to lower layer, sum(packetBytes)"
scalar OrionNetwork.host[9].udpApp[0] 	"packets sent" 	7
scalar OrionNetwork.host[9].udpApp[0] 	"packets received" 	19
scalar OrionNetwork.host[9].udpApp[0] 	sentPk:count 	7
attr interpolationmode  none
attr source  sentPk
attr title  "packets sent, count"
scalar OrionNetwork.host[9].udpApp[0] 	sentPk:sum(packetBytes) 	140
attr interpolationmode  none
attr source  sentPk
attr title  "packets sent, sum(packetBytes)"
scalar OrionNetwork.host[9].udpApp[0] 	rcvdPk:count 	19
attr interpolationmode  none
attr source  rcvdPk
attr title  "packets received, count"
scalar OrionNetwork.host[9].udpApp[0] 	rcvdPk:sum(packetBytes) 	360
attr interpolationmode  none
attr source  rcvdPk
attr title  "packets received, sum(packetBytes)"
statistic OrionNetwork.host[9].udpApp[0] 	rcvdPkLifetime:stats
field count 19
field mean 0.00025666643673684
field stddev 0.00010498148132773
field sum 0.004876662298
field sqrsum 1.4500555407883e-006
field min 0.000232079105
field max 0.000690184987
attr interpolationmode  none
attr source  messageAge(rcvdPk)
attr title  "received packet lifetime, stats"
attr unit  s
scalar OrionNetwork.host[9].udp 	droppedPkBadChecksum:count 	0
attr interpolationmode  none
attr title  "packets dropped (checksum error), count"
scalar OrionNetwork.host[9].udp 	droppedPkWrongPort:count 	0
attr interpolationmode  none
attr title  "packets dropped (wrong port), count"
scalar OrionNetwork.host[9].udp 	passedUpPk:count 	19
attr interpolationmode  none
attr title  "packets passed up, count"
scalar OrionNetwork.host[9].udp 	sentPk:count 	8
attr interpolationmode  none
attr source  sentPk
attr title  "packets sent, count"
scalar OrionNetwork.host[9].udp 	sentPk:sum(packetBytes) 	204
attr interpolationmode  none
attr source  sentPk
attr title  "packets sent, sum(packetBytes)"
scalar OrionNetwork.host[9].udp 	rcvdPk:count 	19
attr interpolationmode  none
attr source  rcvdPk
attr title  "packets received, count"
scalar OrionNetwork.host[9].udp 	rcvdPk:sum(packetBytes) 	512
attr interpolationmode  none
attr source  rcvdPk
attr title  "packets received, sum(packetBytes)"
scalar OrionNetwork.host[10].networkLayer.arp 	initiatedARPResolution:count 	0
attr title  "ARP initiated resolutions, count"
scalar OrionNetwork.host[10].networkLayer.arp 	sentReply:count 	0
attr title  "ARP replies sent, count"
scalar OrionNetwork.host[10].networkLayer.arp 	sentReq:count 	0
attr title  "ARP request sent, count"
scalar OrionNetwork.host[10].networkLayer.arp 	failedARPResolution:count 	0
attr title  "ARP failed resolutions, count"
scalar OrionNetwork.host[10].networkLayer.arp 	completedARPResolution:count 	0
attr title  "ARP completed resolutions, count"
scalar OrionNetwork.host[10].lo0.lo 	rcvdPkFromHL:count 	0
attr interpolationmode  none
attr source  packetReceivedFromUpper
attr title  "packets received from higher layer, count"
scalar OrionNetwork.host[10].lo0.lo 	rcvdPkFromHL:sum(packetBytes) 	0
attr interpolationmode  none
attr source  packetReceivedFromUpper
attr title  "packets received from higher layer, sum(packetBytes)"
scalar OrionNetwork.host[10].lo0.lo 	passedUpPk:count 	0
attr interpolationmode  none
attr source  packetSentToUpper
attr title  "packets passed to higher layer, count"
scalar OrionNetwork.host[10].lo0.lo 	passedUpPk:sum(packetBytes) 	0
attr interpolationmode  none
attr source  packetSentToUpper
attr title  "packets passed to higher layer, sum(packetBytes)"
scalar OrionNetwork.host[10].lo0.lo 	droppedPkBitError:count 	0
attr interpolationmode  none
attr source  dropPkBitError
attr title  "packets dropped/bit error, count"
scalar OrionNetwork.host[10].lo0.lo 	droppedPkBitError:sum(packetBytes) 	0
attr interpolationmode  none
attr source  dropPkBitError
attr title  "packets dropped/bit error, sum(packetBytes)"
statistic OrionNetwork.host[10].wlan[0].queue 	queueingTime:histogram
field count 4
field mean 0
field stddev 0
field sum 0
field sqrsum 0
field min 0
field max 0
attr interpolationmode  none
attr title  "queueing time, histogram"
bin	-INF	0
bin	-0.5	0
bin	-0.46666666666667	0
bin	-0.43333333333333	0
bin	-0.4	0
bin	-0.36666666666667	0
bin	-0.33333333333333	0
bin	-0.3	0
bin	-0.26666666666667	0
bin	-0.23333333333333	0
bin	-0.2	0
bin	-0.16666666666667	0
bin	-0.13333333333333	0
bin	-0.1	0
bin	-0.066666666666667	0
bin	-0.033333333333333	0
bin	-6.9388939039072e-018	4
bin	0.033333333333333	0
bin	0.066666666666667	0
bin	0.1	0
bin	0.13333333333333	0
bin	0.16666666666667	0
bin	0.2	0
bin	0.23333333333333	0
bin	0.26666666666667	0
bin	0.3	0
bin	0.33333333333333	0
bin	0.36666666666667	0
bin	0.4	0
bin	0.43333333333333	0
bin	0.46666666666667	0
bin	0.5	0
scalar OrionNetwork.host[10].wlan[0].queue 	dropPk:count 	0
attr interpolationmode  none
attr source  dropPkByQueue
attr title  "dropped packets, count"
scalar OrionNetwork.host[10].wlan[0].queue 	dropPk:sum(packetBytes) 	0
attr interpolationmode  none
attr source  dropPkByQueue
attr title  "dropped packets, sum(packetBytes)"
scalar OrionNetwork.host[10].wlan[0].queue 	queueLength:max 	0
attr interpolationmode  sample-hold
attr title  "queue length, max"
scalar OrionNetwork.host[10].wlan[0].queue 	queueLength:timeavg 	0
attr interpolationmode  sample-hold
attr title  "queue length, timeavg"
scalar OrionNetwork.host[10].wlan[0].queue 	rcvdPk:count 	4
attr interpolationmode  none
attr title  "received packets, count"
scalar OrionNetwork.host[10].wlan[0].queue 	rcvdPk:sum(packetBytes) 	192
attr interpolationmode  none
attr title  "received packets, sum(packetBytes)"
scalar OrionNetwork.host[10].wlan[0].mac 	droppedPkNotForUs:count 	4
attr interpolationmode  none
attr source  dropPkNotForUs
attr title  "packets dropped/not for us, count"
scalar OrionNetwork.host[10].wlan[0].mac 	droppedPkNotForUs:sum(packetBytes) 	172
attr interpolationmode  none
attr source  dropPkNotForUs
attr title  "packets dropped/not for us, sum(packetBytes)"
scalar OrionNetwork.host[10].wlan[0].mac 	rcvdPkFromHL:count 	4
attr interpolationmode  none
attr source  packetReceivedFromUpper
attr title  "packets received from higher layer, count"
scalar OrionNetwork.host[10].wlan[0].mac 	rcvdPkFromHL:sum(packetBytes) 	192
attr interpolationmode  none
attr source  packetReceivedFromUpper
attr title  "packets received from higher layer, sum(packetBytes)"
scalar OrionNetwork.host[10].wlan[0].mac 	passedUpPk:count 	9
attr interpolationmode  none
attr source  packetSentToUpper
attr title  "packets passed to higher layer, count"
scalar OrionNetwork.host[10].wlan[0].mac 	passedUpPk:sum(packetBytes) 	392
attr interpolationmode  none
attr source  packetSentToUpper
attr title  "packets passed to higher layer, sum(packetBytes)"
scalar OrionNetwork.host[10].wlan[0].mac 	rcvdPkFromLL:count 	13
attr interpolationmode  none
attr source  packetReceivedFromLower
attr title  "packets received from lower layer, count"
scalar OrionNetwork.host[10].wlan[0].mac 	rcvdPkFromLL:sum(packetBytes) 	654
attr interpolationmode  none
attr source  packetReceivedFromLower
[...]
bin	0.0003016	0
bin	0.00031706666666667	0
bin	0.00033253333333333	0
bin	0.000348	0
scalar OrionNetwork.host[12].wlan[0].queue 	dropPk:count 	0
attr interpolationmode  none
attr source  dropPkByQueue
attr title  "dropped packets, count"
scalar OrionNetwork.host[12].wlan[0].queue 	dropPk:sum(packetBytes) 	0
attr interpolationmode  none
attr source  dropPkByQueue
attr title  "dropped packets, sum(packetBytes)"
scalar OrionNetwork.host[12].wlan[0].queue 	queueLength:max 	1
attr interpolationmode  sample-hold
attr title  "queue length, max"
scalar OrionNetwork.host[12].wlan[0].queue 	queueLength:timeavg 	3.8666666666667e-006
attr interpolationmode  sample-hold
attr title  "queue length, timeavg"
scalar OrionNetwork.host[12].wlan[0].queue 	rcvdPk:count 	14
attr interpolationmode  none
attr title  "received packets, count"
scalar OrionNetwork.host[12].wlan[0].queue 	rcvdPk:sum(packetBytes) 	632
attr interpolationmode  none
attr title  "received packets, sum(packetBytes)"
scalar OrionNetwork.host[12].wlan[0].mac 	droppedPkNotForUs:count 	18
attr interpolationmode  none
attr source  dropPkNotForUs
attr title  "packets dropped/not for us, count"
scalar OrionNetwork.host[12].wlan[0].mac 	droppedPkNotForUs:sum(packetBytes) 	884
attr interpolationmode  none
attr source  dropPkNotForUs
attr title  "packets dropped/not for us, sum(packetBytes)"
scalar OrionNetwork.host[12].wlan[0].mac 	rcvdPkFromHL:count 	14
attr interpolationmode  none
attr source  packetReceivedFromUpper
attr title  "packets received from higher layer, count"
scalar OrionNetwork.host[12].wlan[0].mac 	rcvdPkFromHL:sum(packetBytes) 	632
attr interpolationmode  none
attr source  packetReceivedFromUpper
attr title  "packets received from higher layer, sum(packetBytes)"
scalar OrionNetwork.host[12].wlan[0].mac 	passedUpPk:count 	47
attr interpolationmode  none
attr source  packetSentToUpper
attr title  "packets passed to higher layer, count"
scalar OrionNetwork.host[12].wlan[0].mac 	passedUpPk:sum(packetBytes) 	2196
attr interpolationmode  none
attr source  packetSentToUpper
attr title  "packets passed to higher layer, sum(packetBytes)"
scalar OrionNetwork.host[12].wlan[0].mac 	rcvdPkFromLL:count 	65
attr interpolationmode  none
attr source  packetReceivedFromLower
attr title  "packets received from lower layer, count"
scalar OrionNetwork.host[12].wlan[0].mac 	rcvdPkFromLL:sum(packetBytes) 	3550
attr interpolationmode  none
attr source  packetReceivedFromLower
attr title  "packets received from lower layer, sum(packetBytes)"
scalar OrionNetwork.host[12].wlan[0].mac 	sentDownPk:count 	14
attr interpolationmode  none
attr source  packetSentToLower
attr title  "packets sent to lower layer, count"
scalar OrionNetwork.host[12].wlan[0].mac 	sentDownPk:sum(packetBytes) 	772
attr interpolationmode  none
attr source  packetSentToLower
attr title  "packets sent to lower layer, sum(packetBytes)"
scalar OrionNetwork.host[12].udpApp[0] 	"packets sent" 	11
scalar OrionNetwork.host[12].udpApp[0] 	"packets received" 	44
scalar OrionNetwork.host[12].udpApp[0] 	sentPk:count 	13
attr interpolationmode  none
attr source  sentPk
attr title  "packets sent, count"
scalar OrionNetwork.host[12].udpApp[0] 	sentPk:sum(packetBytes) 	240
attr interpolationmode  none
attr source  sentPk
attr title  "packets sent, sum(packetBytes)"
scalar OrionNetwork.host[12].udpApp[0] 	rcvdPk:count 	44
attr interpolationmode  none
attr source  rcvdPk
attr title  "packets received, count"
scalar OrionNetwork.host[12].udpApp[0] 	rcvdPk:sum(packetBytes) 	880
attr interpolationmode  none
attr source  rcvdPk
attr title  "packets received, sum(packetBytes)"
statistic OrionNetwork.host[12].udpApp[0] 	rcvdPkLifetime:stats
field count 44
field mean 0.000235992051
field stddev 2.2943049678605e-005
field sum 0.010383650244
field sqrsum 2.4730934096761e-006
field min 0.000232140722
field max 0.00038471563
attr interpolationmode  none
attr source  messageAge(rcvdPk)
attr title  "received packet lifetime, stats"
attr unit  s
scalar OrionNetwork.host[12].udp 	droppedPkBadChecksum:count 	0
attr interpolationmode  none
attr title  "packets dropped (checksum error), count"
scalar OrionNetwork.host[12].udp 	droppedPkWrongPort:count 	0
attr interpolationmode  none
attr title  "packets dropped (wrong port), count"
scalar OrionNetwork.host[12].udp 	passedUpPk:count 	44
attr interpolationmode  none
attr title  "packets passed up, count"
scalar OrionNetwork.host[12].udp 	sentPk:count 	13
attr interpolationmode  none
attr source  sentPk
attr title  "packets sent, count"
scalar OrionNetwork.host[12].udp 	sentPk:sum(packetBytes) 	344
attr interpolationmode  none
attr source  sentPk
attr title  "packets sent, sum(packetBytes)"
scalar OrionNetwork.host[12].udp 	rcvdPk:count 	44
attr interpolationmode  none
attr source  rcvdPk
attr title  "packets received, count"
scalar OrionNetwork.host[12].udp 	rcvdPk:sum(packetBytes) 	1232
attr interpolationmode  none
attr source  rcvdPk
attr title  "packets received, sum(packetBytes)"
scalar OrionNetwork.host[13].networkLayer.arp 	initiatedARPResolution:count 	1
attr title  "ARP initiated resolutions, count"
scalar OrionNetwork.host[13].networkLayer.arp 	sentReply:count 	1
attr title  "ARP replies sent, count"
scalar OrionNetwork.host[13].networkLayer.arp 	sentReq:count 	1
attr title  "ARP request sent, count"
scalar OrionNetwork.host[13].networkLayer.arp 	failedARPResolution:count 	0
attr title  "ARP failed resolutions, count"
scalar OrionNetwork.host[13].networkLayer.arp 	completedARPResolution:count 	3
attr title  "ARP completed resolutions, count"
scalar OrionNetwork.host[13].lo0.lo 	rcvdPkFromHL:count 	0
attr interpolationmode  none
attr source  packetReceivedFromUpper
attr title  "packets received from higher layer, count"
scalar OrionNetwork.host[13].lo0.lo 	rcvdPkFromHL:sum(packetBytes) 	0
attr interpolationmode  none
attr source  packetReceivedFromUpper
attr title  "packets received from higher layer, sum(packetBytes)"
scalar OrionNetwork.host[13].lo0.lo 	passedUpPk:count 	0
attr interpolationmode  none
attr source  packetSentToUpper
attr title  "packets passed to higher layer, count"
scalar OrionNetwork.host[13].lo0.lo 	passedUpPk:sum(packetBytes) 	0
attr interpolationmode  none
attr source  packetSentToUpper
attr title  "packets passed to higher layer, sum(packetBytes)"
scalar OrionNetwork.host[13].lo0.lo 	droppedPkBitError:count 	0
attr interpolationmode  none
attr source  dropPkBitError
attr title  "packets dropped/bit error, count"
scalar OrionNetwork.host[13].lo0.lo 	droppedPkBitError:sum(packetBytes) 	0
attr interpolationmode  none
attr source  dropPkBitError
attr title  "packets dropped/bit error, sum(packetBytes)"
statistic OrionNetwork.host[13].wlan[0].queue 	queueingTime:histogram
field count 10
field mean 2.32e-005
field stddev 7.3364841715906e-005
field sum 0.000232
field sqrsum 5.3824e-008
field min 0
field max 0.000232
attr interpolationmode  none
attr title  "queueing time, histogram"
bin	-INF	0
bin	-0.000116	0
bin	-0.00010053333333333	0
bin	-8.5066666666667e-005	0
bin	-6.96e-005	0
bin	-5.4133333333333e-005	0
bin	-3.8666666666667e-005	0
bin	-2.32e-005	0
bin	-7.7333333333333e-006	9
bin	7.7333333333333e-006	0
bin	2.32e-005	0
bin	3.8666666666667e-005	0
bin	5.4133333333333e-005	0
bin	6.96e-005	0
bin	8.5066666666667e-005	0
bin	0.00010053333333333	0
bin	0.000116	0
bin	0.00013146666666667	0
bin	0.00014693333333333	0
bin	0.0001624	0
bin	0.00017786666666667	0
bin	0.00019333333333333	0
bin	0.0002088	0
bin	0.00022426666666667	1
bin	0.00023973333333333	0
bin	0.0002552	0
bin	0.00027066666666667	0
bin	0.00028613333333333	0
bin	0.0003016	0
bin	0.00031706666666667	0
bin	0.00033253333333333	0
bin	0.000348	0
scalar OrionNetwork.host[13].wlan[0].queue 	dropPk:count 	0
attr interpolationmode  none
attr source  dropPkByQueue
attr title  "dropped packets, count"
scalar OrionNetwork.host[13].wlan[0].queue 	dropPk:sum(packetBytes) 	0
attr interpolationmode  none
attr source  dropPkByQueue
attr title  "dropped packets, sum(packetBytes)"
scalar OrionNetwork.host[13].wlan[0].queue 	queueLength:max 	1
attr interpolationmode  sample-hold
attr title  "queue length, max"
scalar OrionNetwork.host[13].wlan[0].queue 	queueLength:timeavg 	3.8666666666667e-006
attr interpolationmode  sample-hold
attr title  "queue length, timeavg"
scalar OrionNetwork.host[13].wlan[0].queue 	rcvdPk:count 	10
attr interpolationmode  none
attr title  "received packets, count"
scalar OrionNetwork.host[13].wlan[0].queue 	rcvdPk:sum(packetBytes) 	400
attr interpolationmode  none
attr title  "received packets, sum(packetBytes)"
scalar OrionNetwork.host[13].wlan[0].mac 	droppedPkNotForUs:count 	3
attr interpolationmode  none
attr source  dropPkNotForUs
attr title  "packets dropped/not for us, count"
scalar OrionNetwork.host[13].wlan[0].mac 	droppedPkNotForUs:sum(packetBytes) 	134
attr interpolationmode  none
attr source  dropPkNotForUs
attr title  "packets dropped/not for us, sum(packetBytes)"
scalar OrionNetwork.host[13].wlan[0].mac 	rcvdPkFromHL:count 	10
attr interpolationmode  none
attr source  packetReceivedFromUpper
attr title  "packets received from higher layer, count"
scalar OrionNetwork.host[13].wlan[0].mac 	rcvdPkFromHL:sum(packetBytes) 	400
attr interpolationmode  none
attr source  packetReceivedFromUpper
attr title  "packets received from higher layer, sum(packetBytes)"
scalar OrionNetwork.host[13].wlan[0].mac 	passedUpPk:count 	22
attr interpolationmode  none
attr source  packetSentToUpper
attr title  "packets passed to higher layer, count"
scalar OrionNetwork.host[13].wlan[0].mac 	passedUpPk:sum(packetBytes) 	976
attr interpolationmode  none
attr source  packetSentToUpper
attr title  "packets passed to higher layer, sum(packetBytes)"
scalar OrionNetwork.host[13].wlan[0].mac 	rcvdPkFromLL:count 	25
attr interpolationmode  none
attr source  packetReceivedFromLower
attr title  "packets received from lower layer, count"
scalar OrionNetwork.host[13].wlan[0].mac 	rcvdPkFromLL:sum(packetBytes) 	1330
attr interpolationmode  none
attr source  packetReceivedFromLower
attr title  "packets received from lower layer, sum(packetBytes)"
scalar OrionNetwork.host[13].wlan[0].mac 	sentDownPk:count 	10
attr interpolationmode  none
attr source  packetSentToLower
attr title  "packets sent to lower layer, count"
scalar OrionNetwork.host[13].wlan[0].mac 	sentDownPk:sum(packetBytes) 	500
attr interpolationmode  none
attr source  packetSentToLower
attr title  "packets sent to lower layer, sum(packetBytes)"
scalar OrionNetwork.host[13].udpApp[0] 	"packets sent" 	5
scalar OrionNetwork.host[13].udpApp[0] 	"packets received" 	19
scalar OrionNetwork.host[13].udpApp[0] 	sentPk:count 	7
attr interpolationmode  none
attr source  sentPk
attr title  "packets sent, count"
scalar OrionNetwork.host[13].udpApp[0] 	sentPk:sum(packetBytes) 	120
attr interpolationmode  none
attr source  sentPk
attr title  "packets sent, sum(packetBytes)"
scalar OrionNetwork.host[13].udpApp[0] 	rcvdPk:count 	19
attr interpolationmode  none
attr source  rcvdPk
attr title  "packets received, count"
scalar OrionNetwork.host[13].udpApp[0] 	rcvdPk:sum(packetBytes) 	360
attr interpolationmode  none
attr source  rcvdPk
attr title  "packets received, sum(packetBytes)"
statistic OrionNetwork.host[13].udpApp[0] 	rcvdPkLifetime:stats
field count 19
field mean 0.00030529575868421
field stddev 0.00023031738090368
field sum 0.005800619415
field sqrsum 2.7257342321747e-006
field min 0.000232095559
field max 0.001148364664
attr interpolationmode  none
attr source  messageAge(rcvdPk)
attr title  "received packet lifetime, stats"
attr unit  s
scalar OrionNetwork.host[13].udp 	droppedPkBadChecksum:count 	0
attr interpolationmode  none
attr title  "packets dropped (checksum error), count"
scalar OrionNetwork.host[13].udp 	droppedPkWrongPort:count 	0
attr interpolationmode  none
attr title  "packets dropped (wrong port), count"
scalar OrionNetwork.host[13].udp 	passedUpPk:count 	19
attr interpolationmode  none
attr title  "packets passed up, count"
scalar OrionNetwork.host[13].udp 	sentPk:count 	8
attr interpolationmode  none
attr source  sentPk
attr title  "packets sent, count"
scalar OrionNetwork.host[13].udp 	sentPk:sum(packetBytes) 	184
attr interpolationmode  none
attr source  sentPk
attr title  "packets sent, sum(packetBytes)"
scalar OrionNetwork.host[13].udp 	rcvdPk:count 	19
attr interpolationmode  none
attr source  rcvdPk
attr title  "packets received, count"
scalar OrionNetwork.host[13].udp 	rcvdPk:sum(packetBytes) 	512
attr interpolationmode  none
attr source  rcvdPk
attr title  "packets received, sum(packetBytes)"
scalar OrionNetwork.host[14].networkLayer.arp 	initiatedARPResolution:count 	0
attr title  "ARP initiated resolutions, count"
scalar OrionNetwork.host[14].networkLayer.arp 	sentReply:count 	0
attr title  "ARP replies sent, count"
scalar OrionNetwork.host[14].networkLayer.arp 	sentReq:count 	0
attr title  "ARP request sent, count"
scalar OrionNetwork.host[14].networkLayer.arp 	failedARPResolution:count 	0
attr title  "ARP failed resolutions, count"
scalar OrionNetwork.host[14].networkLayer.arp 	completedARPResolution:count 	0
attr title  "ARP completed resolutions, count"
scalar OrionNetwork.host[14].lo0.lo 	rcvdPkFromHL:count 	0
attr interpolationmode  none
attr source  packetReceivedFromUpper
attr title  "packets received from higher layer, count"
scalar OrionNetwork.host[14].lo0.lo 	rcvdPkFromHL:sum(packetBytes) 	0
attr interpolationmode  none
attr source  packetReceivedFromUpper
attr title  "packets received from higher layer, sum(packetBytes)"
scalar OrionNetwork.host[14].lo0.lo 	passedUpPk:count 	0
attr interpolationmode  none
attr source  packetSentToUpper
attr title  "packets passed to higher layer, count"
scalar OrionNetwork.host[14].lo0.lo 	passedUpPk:sum(packetBytes) 	0
attr interpolationmode  none
attr source  packetSentToUpper
attr title  "packets passed to higher layer, sum(packetBytes)"
scalar OrionNetwork.host[14].lo0.lo 	droppedPkBitError:count 	0
attr interpolationmode  none
attr source  dropPkBitError
attr title  "packets dropped/bit error, count"
scalar OrionNetwork.host[14].lo0.lo 	droppedPkBitError:sum(packetBytes) 	0
attr interpolationmode  none
attr source  dropPkBitError
attr title  "packets dropped/bit error, sum(packetBytes)"
statistic OrionNetwork.host[14].wlan[0].queue 	queueingTime:histogram
field count 9
field mean 0
field stddev 0
field sum 0
field sqrsum 0
field min 0
field max 0
attr interpolationmode  none
attr title  "queueing time, histogram"
bin	-INF	0
bin	-0.5	0
bin	-0.46666666666667	0
bin	-0.43333333333333	0
bin	-0.4	0
bin	-0.36666666666667	0
bin	-0.33333333333333	0
bin	-0.3	0
bin	-0.26666666666667	0
bin	-0.23333333333333	0
bin	-0.2	0
bin	-0.16666666666667	0
bin	-0.13333333333333	0
bin	-0.1	0
bin	-0.066666666666667	0
bin	-0.033333333333333	0
bin	-6.9388939039072e-018	9
bin	0.033333333333333	0
bin	0.066666666666667	0
bin	0.1	0
bin	0.13333333333333	0
bin	0.16666666666667	0
bin	0.2	0
bin	0.23333333333333	0
bin	0.26666666666667	0
bin	0.3	0
bin	0.33333333333333	0
bin	0.36666666666667	0
bin	0.4	0
bin	0.43333333333333	0
bin	0.46666666666667	0
bin	0.5	0
scalar OrionNetwork.host[14].wlan[0].queue 	dropPk:count 	0
attr interpolationmode  none
attr source  dropPkByQueue
attr title  "dropped packets, count"
scalar OrionNetwork.host[14].wlan[0].queue 	dropPk:sum(packetBytes) 	0
attr interpolationmode  none
attr source  dropPkByQueue
attr title  "dropped packets, sum(packetBytes)"
scalar OrionNetwork.host[14].wlan[0].queue 	queueLength:max 	0
attr interpolationmode  sample-hold
attr title  "queue length, max"
scalar OrionNetwork.host[14].wlan[0].queue 	queueLength:timeavg 	0
attr interpolationmode  sample-hold
attr title  "queue length, timeavg"
scalar OrionNetwork.host[14].wlan[0].queue 	rcvdPk:count 	9
attr interpolationmode  none
attr title  "received packets, count"
scalar OrionNetwork.host[14].wlan[0].queue 	rcvdPk:sum(packetBytes) 	432
attr interpolationmode  none
attr title  "received packets, sum(packetBytes)"
scalar OrionNetwork.host[14].wlan[0].mac 	droppedPkNotForUs:count 	8
attr interpolationmode  none
attr source  dropPkNotForUs
attr title  "packets dropped/not for us, count"
scalar OrionNetwork.host[14].wlan[0].mac 	droppedPkNotForUs:sum(packetBytes) 	384
attr interpolationmode  none
attr source  dropPkNotForUs
attr title  "packets dropped/not for us, sum(packetBytes)"
scalar OrionNetwork.host[14].wlan[0].mac 	rcvdPkFromHL:count 	9
attr interpolationmode  none
attr source  packetReceivedFromUpper
attr title  "packets received from higher layer, count"
scalar OrionNetwork.host[14].wlan[0].mac 	rcvdPkFromHL:sum(packetBytes) 	432
attr interpolationmode  none
attr source  packetReceivedFromUpper
attr title  "packets received from higher layer, sum(packetBytes)"
scalar OrionNetwork.host[14].wlan[0].mac 	passedUpPk:count 	31
attr interpolationmode  none
attr source  packetSentToUpper
attr title  "packets passed to higher layer, count"
scalar OrionNetwork.host[14].wlan[0].mac 	passedUpPk:sum(packetBytes) 	1468
attr interpolationmode  none
attr source  packetSentToUpper
attr title  "packets passed to higher layer, sum(packetBytes)"
scalar OrionNetwork.host[14].wlan[0].mac 	rcvdPkFromLL:count 	39
attr interpolationmode  none
attr source  packetReceivedFromLower
attr title  "packets received from lower layer, count"
scalar OrionNetwork.host[14].wlan[0].mac 	rcvdPkFromLL:sum(packetBytes) 	2162
attr interpolationmode  none
attr source  packetReceivedFromLower
attr title  "packets received from lower layer, sum(packetBytes)"
scalar OrionNetwork.host[14].wlan[0].mac 	sentDownPk:count 	9
attr interpolationmode  none
attr source  packetSentToLower
attr title  "packets sent to lower layer, count"
scalar OrionNetwork.host[14].wlan[0].mac 	sentDownPk:sum(packetBytes) 	522
attr interpolationmode  none
attr source  packetSentToLower
attr title  "packets sent to lower layer, sum(packetBytes)"
scalar OrionNetwork.host[14].udpApp[0] 	"packets sent" 	9
scalar OrionNetwork.host[14].udpApp[0] 	"packets received" 	30
scalar OrionNetwork.host[14].udpApp[0] 	sentPk:count 	9
attr interpolationmode  none
attr source  sentPk
attr title  "packets sent, count"
scalar OrionNetwork.host[14].udpApp[0] 	sentPk:sum(packetBytes) 	180
attr interpolationmode  none
attr source  sentPk
attr title  "packets sent, sum(packetBytes)"
scalar OrionNetwork.host[14].udpApp[0] 	rcvdPk:count 	30
attr interpolationmode  none
attr source  rcvdPk
attr title  "packets received, count"
scalar OrionNetwork.host[14].udpApp[0] 	rcvdPk:sum(packetBytes) 	600
attr interpolationmode  none
attr source  rcvdPk
attr title  "packets received, sum(packetBytes)"
statistic OrionNetwork.host[14].udpApp[0] 	rcvdPkLifetime:stats
field count 30
field mean 0.00023771475323333
field stddev 2.7881193240983e-005
field sum 0.007131442597
field sqrsum 1.7177925843032e-006
field min 0.000232327747
field max 0.000385333553
attr interpolationmode  none
attr source  messageAge(rcvdPk)
attr title  "received packet lifetime, stats"
attr unit  s
scalar OrionNetwork.host[14].udp 	droppedPkBadChecksum:count 	0
attr interpolationmode  none
attr title  "packets dropped (checksum error), count"
scalar OrionNetwork.host[14].udp 	droppedPkWrongPort:count 	0
attr interpolationmode  none
attr title  "packets dropped (wrong port), count"
scalar OrionNetwork.host[14].udp 	passedUpPk:count 	30
attr interpolationmode  none
attr title  "packets passed up, count"
scalar OrionNetwork.host[14].udp 	sentPk:count 	9
attr interpolationmode  none
attr source  sentPk
attr title  "packets sent, count"
scalar OrionNetwork.host[14].udp 	sentPk:sum(packetBytes) 	252
attr interpolationmode  none
attr source  sentPk
attr title  "packets sent, sum(packetBytes)"
scalar OrionNetwork.host[14].udp 	rcvdPk:count 	30
attr interpolationmode  none
attr source  rcvdPk
attr title  "packets received, count"
scalar OrionNetwork.host[14].udp 	rcvdPk:sum(packetBytes) 	840
attr interpolationmode  none
attr source  rcvdPk
attr title  "packets received, sum(packetBytes)"
